 ANSYS
      License feature : Explicit - Basic
      License type    : Commercial



       AAAAAA   UU    UU  TTTTTTTT   OOOOOO   DDDDDDD   YY    YY  NN    NN  TM
      AA    AA  UU    UU     TT     OO    OO  DD    DD   YY  YY   NNN   NN
      AA    AA  UU    UU     TT     OO    OO  DD    DD    YYYY    NNNN  NN
      AAAAAAAA  UU    UU     TT     OO    OO  DD    DD     YY     NN NN NN
      AA    AA  UU    UU     TT     OO    OO  DD    DD     YY     NN  NNNN
      AA    AA  UU    UU     TT     OO    OO  DD    DD     YY     NN   NNN
      AA    AA   UUUUUU      TT      OOOOOO   DDDDDDD      YY     NN    NN




           Copyright (C) 2021, ANSYS, Inc.  All rights reserved.
           Unauthorized use, distribution or duplication is prohibited.




 




                                2022 R1
                                   
                 Point Releases and Patches installed:
                                   
                  ANSYS, Inc. License Manager 2022 R1
                           Discovery 2022 R1
                          SpaceClaim 2022 R1
                        Ansys Sherlock 2022 R1
                            Autodyn 2022 R1
                            LS-DYNA 2022 R1
                    CFX (includes CFD-Post) 2022 R1
                            Chemkin 2022 R1
                            EnSight 2022 R1
                          FENSAP-ICE 2022 R1
                  Fluent (includes CFD-Post) 2022 R1
                 Polyflow (includes CFD-Post) 2022 R1
                   Forte (includes EnSight) 2022 R1
                           TurboGrid 2022 R1
                           ICEM CFD 2022 R1
                             Aqwa 2022 R1
                             Speos 2022 R1
                           Additive 2022 R1
                      Mechanical Products 2022 R1
                  Icepak (includes CFD-Post) 2022 R1
                    ACIS Geometry Interface 2022 R1
                  AutoCAD Geometry Interface 2022 R1
              Catia, Version 4 Geometry Interface 2022 R1
              Catia, Version 5 Geometry Interface 2022 R1
              Catia, Version 6 Geometry Interface 2022 R1
       Creo Elements/Direct Modeling Geometry Interface 2022 R1
              Creo Parametric Geometry Interface 2022 R1
                  Inventor Geometry Interface 2022 R1
                   JTOpen Geometry Interface 2022 R1
                     NX Geometry Interface 2022 R1
                 Parasolid Geometry Interface  2022 R1
                 Solid Edge Geometry Interface 2022 R1
                 SOLIDWORKS Geometry Interface 2022 R1




                            Solver :   EXPLICIT
                             Build :   AUTODYN-3D Version 2022 R1              
                Model File Version :   2022 R1
                        Build Date :   20211115
                 Current Date/Time :   20220719 12:48 (+0800GMT)
                          Platform :   64 bit
                              Beta :   TRUE
                   User Subroutine :   FALSE
               MPI Library Version :   Intel(R) MPI Library 2018 Update 3 for Windows* OS





                             IDENT :   admodel                                                                                                                                                                                                                                                         
                             Title :                                           
                       Description :                                                                                                                                                                                                                                                                   
                       Start Cycle :            0
                        Start Time :  0.00000E+00
                         Precision :   Double




   UNITS

                            Length :   millimeter
                              Mass :   milligram 
                              Time :   millisec. 




   SYMMETRY PLANES

             Symmetry plane at X=0 :   No        
                               Y=0 :   No        
                               Z=0 :   No        




   WRAPUP PARAMETERS

                       Cycle Limit :     10000000
                        Time Limit :  5.00000E-01
     Maximum Energy Error Fraction :  1.00000E-01
            Energy Reference Cycle :            0




   MULTIPLE LOADSTEP DEFINITION

     Step    Type             Step End Time   Static Damping   Convergence Tol.  Max. Iterations

        1    Standard         5.0000E-01      0.0000E+00




   LOADSTEP OUTPUT CONTROLS

     Step    Results       Value      Restarts       Value      Trackers      Value

        1    Global          -         Global          -         Global          -     




   LOADCASE DEFINITIONS

     Case  WB-ID        Type   Active  Loadsteps:                Used by:

        1     86    Standard   Step    DOF:  X  Y  Z RX RY RZ    Velocity                      
                                  1          v  v  v  v  v  v




   TIME STEP INFORMATION

                 Minimum Time Step :  3.26465E-06
                 Maximum Time Step :  1.00000E+08
                 Initial Time Step :  3.26465E-05
           Time Step Safety Factor :  9.00000E-01
                      Mass scaling :  OFF




   GRAVITATIONAL CONSTANTS

             Global X Gravity :  0.00000E+00
             Global Y Gravity :  0.00000E+00
             Global Z Gravity :  0.00000E+00




   GRAVITATIONAL AND ACCELERATION CONSTANTS - SUM AT START CYCLE

             Total  X Acceleration :  0.00000E+00
             Total  Y Acceleration :  0.00000E+00
             Total  Z Acceleration :  0.00000E+00





 
   DAMPING CONSTANTS

                 Hourglass Damping :  1.00000E-01
                    Static Damping : Per loadstep




   ARTIFICIAL VISCOSITY

               Quadratic Viscosity :  1.00000E+00
                  Linear Viscosity :  2.00000E-01
     Apply Lin.vis. in exp. for HE :  No
     Art. vis. in structured shells:  Yes




   GLOBAL OUTPUT CONTROLS

                    Save Results On  : Time
                    Increments :        2.50000E-02
                    Save Restarts On  : Time
                    Increments :        1.00000E-01
                    Save Trackers On : Cycles
                    Increments :        1.00000E+00




   CUTOFF VALUES

                   Velocity Cutoff :  1.00000E-06
                 Soundspeed Cutoff :  1.00000E-06
                     Radius Cutoff :  1.00000E-03
                  Maximum Velocity :  1.00000E+10
               Maximum Temperature :  1.01000E+20
                    Join Tolerance :  5.00000E-02




   METHOD OF CALCULATING CHARACTERISTIC ZONE DIMENSION

                     Method to Use :  Diagonals




   METHOD OF UPDATING LAG/ALE CELL DENSITIES AND COMPRESSIONS

                     Method to Use :  Automatic




   USER VARIABLES

     Fortran name  User name     Restart  Rezone

     VAR01         VAR.1         N        N
     VAR02         VAR.2         N        N
     VAR03         VAR.3         N        N
     VAR04         VAR.4         N        N
     VAR05         VAR.5         N        N
     VAR06         VAR.6         N        N
     VAR07         VAR.7         N        N
     VAR08         VAR.8         N        N
     VAR09         VAR.9         N        N
     VAR10         VAR.10        N        N
     VAR11         VAR.11        N        N
     VAR12         VAR.12        N        N
     VAR13         VAR.13        N        N
     VAR14         VAR.14        N        N
     VAR15         VAR.15        N        N
     VAR16         VAR.16        N        N
     VAR17         VAR.17        N        N
     VAR18         VAR.18        N        N
     VAR19         VAR.19        N        N
     VAR20         VAR.20        N        N





 
   GLOBAL MATERIAL SETTINGS

      Shell yield converg. accuracy:  High




   MATERIALS



                         MATERIAL NAME: CART BRASS                    


                     Equation of State             Shock                                                                           

          Reference density                      (g/cm3   ) 8.45000E+00
          Gruneisen coefficient                  (none    ) 2.04000E+00
          Parameter C1                           (m/s     ) 3.72600E+03
          Parameter S1                           (none    ) 1.43400E+00
          Parameter Quadratic S2                 (s/m     ) 0.00000E+00
          Relative volume, VE/V0                 (none    ) 0.00000E+00
          Relative volume, VB/V0                 (none    ) 0.00000E+00
          Parameter C2                           (m/s     ) 0.00000E+00
          Parameter S2                           (none    ) 0.00000E+00
          Reference Temperature                  (K       ) 2.95150E+02
          Specific Heat                          (J/kgK   ) 3.85000E+02
          Thermal Conductivity                   (J/mKs   ) 0.00000E+00


                     Strength                      Johnson Cook                                                                    

          Shear Modulus                          (kPa     ) 3.74000E+07
          Yield Stress                           (kPa     ) 1.12000E+05
          Hardening Constant                     (kPa     ) 5.05000E+05
          Hardening Exponent                     (none    ) 4.20000E-01
          Strain Rate Constant                   (none    ) 9.00000E-03
          Thermal Softening Exponent             (none    ) 1.68000E+00
          Melting Temperature                    (K       ) 1.18900E+03
          Ref. Strain Rate (/s)                  (none    ) 1.00000E+00
                  Strain Rate Correction                  : 1st Order                             


                     Failure                       None                                                                            



                     Erosion                       None                                                                            



                     Material Cutoffs              

          Maximum Expansion                      (none    ) 1.00000E-01
          Minimum Density Factor                 (none    ) 1.00000E-04
          Minimum Density Factor (SPH)           (none    ) 2.00000E-01
          Maximum Density Factor (SPH)           (none    ) 3.00000E+00
          Minimum Soundspeed                     (m/s     ) 1.00000E-06
          Maximum Soundspeed (SPH)               (m/s     ) 1.01000E+20
          Maximum Temperature                    (K       ) 1.01000E+20


           Reference: 
                                                                                                                                                                                                                                                                


           Notes: 
                                                                                                                                                                                                                                                                


                         MATERIAL NAME: STEEL 4340                    


                     Equation of State             Linear                                                                          

          Reference density                      (g/cm3   ) 7.83000E+00
          Bulk Modulus                           (kPa     ) 1.59000E+08
          Reference Temperature                  (K       ) 2.95150E+02
          Specific Heat                          (J/kgK   ) 4.77000E+02
          Thermal Conductivity                   (J/mKs   ) 0.00000E+00


                     Strength                      Johnson Cook                                                                    

          Shear Modulus                          (kPa     ) 8.18000E+07
          Yield Stress                           (kPa     ) 7.92000E+05
          Hardening Constant                     (kPa     ) 5.10000E+05
          Hardening Exponent                     (none    ) 2.60000E-01
          Strain Rate Constant                   (none    ) 1.40000E-02
          Thermal Softening Exponent             (none    ) 1.03000E+00
          Melting Temperature                    (K       ) 1.79300E+03
          Ref. Strain Rate (/s)                  (none    ) 1.00000E+00
                  Strain Rate Correction                  : 1st Order                             


                     Failure                       None                                                                            



                     Erosion                       None                                                                            



                     Material Cutoffs              

          Maximum Expansion                      (none    ) 1.00000E-01
          Minimum Density Factor                 (none    ) 1.00000E-04
          Minimum Density Factor (SPH)           (none    ) 2.00000E-01
          Maximum Density Factor (SPH)           (none    ) 3.00000E+00
          Minimum Soundspeed                     (m/s     ) 1.00000E-06
          Maximum Soundspeed (SPH)               (m/s     ) 1.01000E+20
          Maximum Temperature                    (K       ) 1.01000E+20


           Reference: 
                                                                                                                                                                                                                                                                


           Notes: 
                                                                                                                                                                                                                                                                









 
   BOUNDARY CONDITIONS



                     Velocity : General Time Dependent Vel.                                          

                     Associated Loadcase ID :        1

              Time          X-Velocity     Y-Velocity      Z-Velocity      RX-Velocity     RY-Velocity     RZ-Velocity
           0.00000E+00    -1.01000E+20     0.00000E+00     0.00000E+00    -1.01000E+20    -1.01000E+20    -1.01000E+20
           5.00000E-01    -1.01000E+20     0.00000E+00     0.00000E+00    -1.01000E+20    -1.01000E+20    -1.01000E+20









 
     UNSTRUCTURED PARTS

           PART                  NO. ELEMENTS         ELEMENT TYPE   ARTIFICIAL VISC.   HOURGLASS CONTROL     VISCOUS COEFF.   

       1   Solid                         2842            Tet 4 ANP        Yes
       2   Solid-2                       1492            Hex 8            Yes           AD STANDARD            1.00000E-01
       2   Solid-2                          8            Penta 6          Yes           AD STANDARD            1.00000E-01

           TOTAL NUMBER ELEMENTS:        4342
           TOTAL NUMBER NODES:           3036




     BODY CONTROL SPECIFICATION

            

            

       SOLID PART(S)

           PART                  TET INTEGRATION TYPE         HEX INTEGRATION TYPE         HOURGLASS DAMPING        VISCOUS COEFF.    STIFFNESS COEFF.      PUSO STAB.   

       1  Solid                  AVERAGE NODAL PRESSURE             N/A                    AD STANDARD               1.00000E-01         0.00000E+00        0.00000E+00
       2  Solid-2                N/A                                EXACT                  AD STANDARD               1.00000E-01         0.00000E+00        0.00000E+00
            

   PART ACTIVATION / DEACTIVATION TIMES

           PART           ACTIVATION   DEACTIVATION
                             TIME          TIME





 
   EDITS

       EDIT FREQUENCY
       EDIT TYPE   HOW DONE          START           END     INCREMENT

       SAVE        by times    0.00000E+00   5.00000E-01   1.00000E-01
       GRIDVAR     Never     
       ENERGYSUM   by times    0.00000E+00   5.00000E-01   1.00000E-01
       CYCSUM      Never     
       HISTORY     by cycles             0      10000000             1
       USER        Never     
       FIELD       Never     

 
   INTERACTIONS

          Using trajectory contact:  Yes
                            Method:  Penalty
                   Sliding Surface:  Discrete
                     Penalty Force:  Harmonic Mass
           Group Contact Treatment:  Lumped
            Shell thickness factor:  0.00000E+00
            Full SPH radius (beta):  No        
                  Search Algorithm:  Cube            
              Retention of Inertia:  Yes       
                  Self-interaction:  Yes       
             Self-interaction Tol.:  2.00000E-01

     Part Name       I-range             J-range             K-range
     Solid                               Active
     Solid-2                             Active

     No coefficients of friction have been specified

















CYCLE       0, TIME=  0.000E+00                                                                                  ENERGY SUMMARY EDIT
 


ENERGY AND MOMENTUM PARTITIONING BY MATERIALS

                                                         INTERNAL   KINETIC
MATERIAL                                 MASS    VOLUME    ENERGY    ENERGY XMOMENTUM YMOMENTUM ZMOMENTUM

CART BRASS                          9.594E+04 1.135E+04 0.000E+00 1.199E+10 4.797E+07 0.000E+00 0.000E+00
STEEL 4340                          8.841E+04 1.129E+04 0.000E+00 0.000E+00 0.000E+00 0.000E+00 0.000E+00
---------------------------------------------------------------------------------------------------------
TOTALS                              1.844E+05 2.265E+04 0.000E+00 1.199E+10 4.797E+07 0.000E+00 0.000E+00


ENERGY AND MOMENTUM PARTITIONING BY PARTS

                                                         INTERNAL   KINETIC                               HOURGLASS   CONTACT
PART                                     MASS    VOLUME    ENERGY    ENERGY XMOMENTUM YMOMENTUM ZMOMENTUM    ENERGY    ENERGY

Solid                               9.594E+04 1.135E+04 0.000E+00 1.199E+10 4.797E+07 0.000E+00 0.000E+00 0.000E+00 0.000E+00
Solid-2                             8.841E+04 1.129E+04 0.000E+00 0.000E+00 0.000E+00 0.000E+00 0.000E+00 0.000E+00 0.000E+00
-----------------------------------------------------------------------------------------------------------------------------
TOTALS                              1.844E+05 2.265E+04 0.000E+00 1.199E+10 4.797E+07 0.000E+00 0.000E+00 0.000E+00 0.000E+00


ENERGY AND MOMENTUM BALANCE

INITIAL ENERGY  1.199E+10, X-MOM  4.797E+07, Y-MOM  0.000E+00, Z-MOM  0.000E+00
EXTERNAL WORK   0.000E+00, X-IMP  0.000E+00, Y-IMP  0.000E+00, Z-IMP  0.000E+00
CONTACT ENERGY  0.000E+00
CURRENT ENERGY  1.199E+10, X-MOM  4.797E+07, Y-MOM  0.000E+00, Z-MOM  0.000E+00
-------------------------------------------------------------------------------
ERROR           0.000E+00         0.000E+00         0.000E+00         0.000E+00

CYCLE    1200, TIME=  1.001E-01                                                                                  ENERGY SUMMARY EDIT
 


ENERGY AND MOMENTUM PARTITIONING BY MATERIALS

                                                         INTERNAL   KINETIC
MATERIAL                                 MASS    VOLUME    ENERGY    ENERGY XMOMENTUM YMOMENTUM ZMOMENTUM

CART BRASS                          9.594E+04 1.134E+04 2.455E+08 1.008E+10 4.398E+07 0.000E+00 0.000E+00
STEEL 4340                          8.841E+04 1.130E+04 9.990E+08 4.537E+08 3.991E+06 6.352E+03-4.042E+04
---------------------------------------------------------------------------------------------------------
TOTALS                              1.844E+05 2.264E+04 1.245E+09 1.054E+10 4.797E+07 6.352E+03-4.042E+04


ENERGY AND MOMENTUM PARTITIONING BY PARTS

                                                         INTERNAL   KINETIC                               HOURGLASS   CONTACT
PART                                     MASS    VOLUME    ENERGY    ENERGY XMOMENTUM YMOMENTUM ZMOMENTUM    ENERGY    ENERGY

Solid                               9.594E+04 1.134E+04 2.455E+08 1.008E+10 4.398E+07 0.000E+00 0.000E+00 0.000E+00-1.574E+09
Solid-2                             8.841E+04 1.130E+04 9.990E+08 4.537E+08 3.991E+06 6.352E+03-4.042E+04 2.607E+08 1.620E+09
-----------------------------------------------------------------------------------------------------------------------------
TOTALS                              1.844E+05 2.264E+04 1.245E+09 1.054E+10 4.797E+07 6.352E+03-4.042E+04 2.607E+08 4.572E+07


ENERGY AND MOMENTUM BALANCE

INITIAL ENERGY  1.199E+10, X-MOM  4.797E+07, Y-MOM  0.000E+00, Z-MOM  0.000E+00
EXTERNAL WORK  -2.573E+08, X-IMP -3.766E-04, Y-IMP  6.352E+03, Z-IMP -4.042E+04
CONTACT ENERGY  4.572E+07
CURRENT ENERGY  1.178E+10, X-MOM  4.797E+07, Y-MOM  6.352E+03, Z-MOM -4.042E+04
-------------------------------------------------------------------------------
ERROR           1.776E+04         4.564E-07         3.660E-09        -4.773E-09

CYCLE    3777, TIME=  2.000E-01                                                                                  ENERGY SUMMARY EDIT
 


ENERGY AND MOMENTUM PARTITIONING BY MATERIALS

                                                         INTERNAL   KINETIC
MATERIAL                                 MASS    VOLUME    ENERGY    ENERGY XMOMENTUM YMOMENTUM ZMOMENTUM

CART BRASS                          9.594E+04 1.136E+04 3.227E+08 8.792E+09 4.107E+07 0.000E+00 0.000E+00
STEEL 4340                          8.841E+04 1.129E+04 2.224E+09 2.850E+08 6.897E+06 7.833E+04-7.165E+04
---------------------------------------------------------------------------------------------------------
TOTALS                              1.844E+05 2.265E+04 2.547E+09 9.077E+09 4.797E+07 7.833E+04-7.165E+04


ENERGY AND MOMENTUM PARTITIONING BY PARTS

                                                         INTERNAL   KINETIC                               HOURGLASS   CONTACT
PART                                     MASS    VOLUME    ENERGY    ENERGY XMOMENTUM YMOMENTUM ZMOMENTUM    ENERGY    ENERGY

Solid                               9.594E+04 1.136E+04 3.227E+08 8.792E+09 4.107E+07 0.000E+00 0.000E+00 0.000E+00-2.760E+09
Solid-2                             8.841E+04 1.129E+04 2.224E+09 2.850E+08 6.897E+06 7.833E+04-7.165E+04 3.890E+08 2.830E+09
-----------------------------------------------------------------------------------------------------------------------------
TOTALS                              1.844E+05 2.265E+04 2.547E+09 9.077E+09 4.797E+07 7.833E+04-7.165E+04 3.890E+08 7.012E+07


ENERGY AND MOMENTUM BALANCE

INITIAL ENERGY  1.199E+10, X-MOM  4.797E+07, Y-MOM  0.000E+00, Z-MOM  0.000E+00
EXTERNAL WORK  -4.478E+08, X-IMP -3.766E-04, Y-IMP  7.833E+04, Z-IMP -7.165E+04
CONTACT ENERGY  7.012E+07
CURRENT ENERGY  1.162E+10, X-MOM  4.797E+07, Y-MOM  7.833E+04, Z-MOM -7.165E+04
-------------------------------------------------------------------------------
ERROR           8.953E+06         4.415E-07         4.104E-09        -5.020E-09

CYCLE    6369, TIME=  3.000E-01                                                                                  ENERGY SUMMARY EDIT
 


ENERGY AND MOMENTUM PARTITIONING BY MATERIALS

                                                         INTERNAL   KINETIC
MATERIAL                                 MASS    VOLUME    ENERGY    ENERGY XMOMENTUM YMOMENTUM ZMOMENTUM

CART BRASS                          9.594E+04 1.136E+04 3.229E+08 8.790E+09 4.107E+07 0.000E+00 0.000E+00
STEEL 4340                          8.841E+04 1.129E+04 2.220E+09 2.908E+08 6.902E+06 6.333E+04-5.378E+04
---------------------------------------------------------------------------------------------------------
TOTALS                              1.844E+05 2.265E+04 2.543E+09 9.081E+09 4.797E+07 6.333E+04-5.378E+04


ENERGY AND MOMENTUM PARTITIONING BY PARTS

                                                         INTERNAL   KINETIC                               HOURGLASS   CONTACT
PART                                     MASS    VOLUME    ENERGY    ENERGY XMOMENTUM YMOMENTUM ZMOMENTUM    ENERGY    ENERGY

Solid                               9.594E+04 1.136E+04 3.229E+08 8.790E+09 4.107E+07 0.000E+00 0.000E+00 0.000E+00-2.761E+09
Solid-2                             8.841E+04 1.129E+04 2.220E+09 2.908E+08 6.902E+06 6.333E+04-5.378E+04 3.918E+08 2.831E+09
-----------------------------------------------------------------------------------------------------------------------------
TOTALS                              1.844E+05 2.265E+04 2.543E+09 9.081E+09 4.797E+07 6.333E+04-5.378E+04 3.918E+08 6.980E+07


ENERGY AND MOMENTUM BALANCE

INITIAL ENERGY  1.199E+10, X-MOM  4.797E+07, Y-MOM  0.000E+00, Z-MOM  0.000E+00
EXTERNAL WORK  -4.480E+08, X-IMP -3.766E-04, Y-IMP  6.333E+04, Z-IMP -5.378E+04
CONTACT ENERGY  6.980E+07
CURRENT ENERGY  1.162E+10, X-MOM  4.797E+07, Y-MOM  6.333E+04, Z-MOM -5.378E+04
-------------------------------------------------------------------------------
ERROR           9.144E+06         4.415E-07         4.482E-09        -5.122E-09

CYCLE    8960, TIME=  4.000E-01                                                                                  ENERGY SUMMARY EDIT
 


ENERGY AND MOMENTUM PARTITIONING BY MATERIALS

                                                         INTERNAL   KINETIC
MATERIAL                                 MASS    VOLUME    ENERGY    ENERGY XMOMENTUM YMOMENTUM ZMOMENTUM

CART BRASS                          9.594E+04 1.136E+04 3.229E+08 8.790E+09 4.107E+07 0.000E+00 0.000E+00
STEEL 4340                          8.841E+04 1.129E+04 2.224E+09 2.871E+08 6.902E+06 6.333E+04-5.378E+04
---------------------------------------------------------------------------------------------------------
TOTALS                              1.844E+05 2.265E+04 2.547E+09 9.077E+09 4.797E+07 6.333E+04-5.378E+04


ENERGY AND MOMENTUM PARTITIONING BY PARTS

                                                         INTERNAL   KINETIC                               HOURGLASS   CONTACT
PART                                     MASS    VOLUME    ENERGY    ENERGY XMOMENTUM YMOMENTUM ZMOMENTUM    ENERGY    ENERGY

Solid                               9.594E+04 1.136E+04 3.229E+08 8.790E+09 4.107E+07 0.000E+00 0.000E+00 0.000E+00-2.761E+09
Solid-2                             8.841E+04 1.129E+04 2.224E+09 2.871E+08 6.902E+06 6.333E+04-5.378E+04 3.931E+08 2.831E+09
-----------------------------------------------------------------------------------------------------------------------------
TOTALS                              1.844E+05 2.265E+04 2.547E+09 9.077E+09 4.797E+07 6.333E+04-5.378E+04 3.931E+08 6.980E+07


ENERGY AND MOMENTUM BALANCE

INITIAL ENERGY  1.199E+10, X-MOM  4.797E+07, Y-MOM  0.000E+00, Z-MOM  0.000E+00
EXTERNAL WORK  -4.480E+08, X-IMP -3.766E-04, Y-IMP  6.333E+04, Z-IMP -5.378E+04
CONTACT ENERGY  6.980E+07
CURRENT ENERGY  1.162E+10, X-MOM  4.797E+07, Y-MOM  6.333E+04, Z-MOM -5.378E+04
-------------------------------------------------------------------------------
ERROR           9.281E+06         4.713E-07         4.577E-09        -5.122E-09

CYCLE   11551, TIME=  5.000E-01                                                                                  ENERGY SUMMARY EDIT
 


ENERGY AND MOMENTUM PARTITIONING BY MATERIALS

                                                         INTERNAL   KINETIC
MATERIAL                                 MASS    VOLUME    ENERGY    ENERGY XMOMENTUM YMOMENTUM ZMOMENTUM

CART BRASS                          9.594E+04 1.136E+04 3.230E+08 8.790E+09 4.107E+07 0.000E+00 0.000E+00
STEEL 4340                          8.841E+04 1.129E+04 2.224E+09 2.864E+08 6.902E+06 6.333E+04-5.378E+04
---------------------------------------------------------------------------------------------------------
TOTALS                              1.844E+05 2.265E+04 2.547E+09 9.076E+09 4.797E+07 6.333E+04-5.378E+04


ENERGY AND MOMENTUM PARTITIONING BY PARTS

                                                         INTERNAL   KINETIC                               HOURGLASS   CONTACT
PART                                     MASS    VOLUME    ENERGY    ENERGY XMOMENTUM YMOMENTUM ZMOMENTUM    ENERGY    ENERGY

Solid                               9.594E+04 1.136E+04 3.230E+08 8.790E+09 4.107E+07 0.000E+00 0.000E+00 0.000E+00-2.761E+09
Solid-2                             8.841E+04 1.129E+04 2.224E+09 2.864E+08 6.902E+06 6.333E+04-5.378E+04 3.942E+08 2.831E+09
-----------------------------------------------------------------------------------------------------------------------------
TOTALS                              1.844E+05 2.265E+04 2.547E+09 9.076E+09 4.797E+07 6.333E+04-5.378E+04 3.942E+08 6.980E+07


ENERGY AND MOMENTUM BALANCE

INITIAL ENERGY  1.199E+10, X-MOM  4.797E+07, Y-MOM  0.000E+00, Z-MOM  0.000E+00
EXTERNAL WORK  -4.480E+08, X-IMP -3.766E-04, Y-IMP  6.333E+04, Z-IMP -5.378E+04
CONTACT ENERGY  6.980E+07
CURRENT ENERGY  1.162E+10, X-MOM  4.797E+07, Y-MOM  6.333E+04, Z-MOM -5.378E+04
-------------------------------------------------------------------------------
ERROR           9.246E+06         4.266E-07         4.933E-09        -5.020E-09
 
 
SIMULATION ELAPSED TIME SUMMARY
 
EXECUTION FROM CYCLE        0 TO    11551
ELAPSED RUN TIME IN SOLVER  =      9.80367E-01 Minutes
ELAPSED RUN TIME IN CONTACT =      2.36950E-01 Minutes
ELAPSED RUN TIME IN EDITS   =      4.61000E-02 Minutes
TOTAL ELAPSED RUN TIME      =      1.02647E+00 Minutes
 
AUTODYN RAN OVER     2 WORKERS
AUTODYN RAN USING DECOMPOSITION AUTO    

AUTODYN RAN ON THE FOLLOWING MACHINES;

-----------------------------------------------------------------------
|    MACHINE NAME                  |     MASTER     |    WORKER(S)    |
-----------------------------------------------------------------------
|    PC-202206241030               |        1       |        2        |
-----------------------------------------------------------------------

