/batch
/config,noeldb,1     ! force off writing results to database
*get,_wallstrt,active,,time,wall
! ANSYS input file written by Workbench version 2022 R1
! File used for geometry attach: E:\ansys\ansys-code\study_3_files\dp0\SYS\DM\SYS.agdb
/title,study_3--Static Structural (A5)
! ****** Begin Custom Load Command Snippet ******
/COM, ACT Extensions:
/COM,     LSDYNA, 2021.1
/COM,     5f463412-bd3e-484b-87e7-cbc0a665e474, wbex
/COM,
! ****** End   Custom Load Command Snippet ******
*DIM,_wb_ProjectScratch_dir,string,248
_wb_ProjectScratch_dir(1) = 'E:\ansys\ansys-code\_ProjectScratch\Scr86E8\'
*DIM,_wb_SolverFiles_dir,string,248
_wb_SolverFiles_dir(1) = 'E:\ansys\ansys-code\study_3_files\dp0\SYS\MECH\'
*DIM,_wb_userfiles_dir,string,248
_wb_userfiles_dir(1) = 'E:\ansys\ansys-code\study_3_files\user_files\'
/com,--- Data in consistent NMM units. See Solving Units in the help system for more information.
/units,MPA
/nopr
/wb,file,start              !  signify a WB generated input file
/prep7
! Turn off shape checking because checks already performed inside WB mesher.
! See help system for more information.
SHPP,OFF,,NOWARN
/nolist
etcon,set             ! allow ANSYS to choose best KEYOP's for 180x elements, resets any applicable keyopt to MAPDL defaults
/com,*********** Nodes for the whole assembly ***********
nblock,3,,1735
(1i9,3e20.9e3)
        1     3.757772525E+00     7.239781802E+00     6.666666667E+00
        2     3.757772525E+00     7.239781802E+00     3.333333333E+00
        3     3.638972626E+01     3.345097649E+00     6.666666667E+00
        4     3.638972626E+01     3.345097649E+00     3.333333333E+00
        5     6.684545924E+00     4.307330652E+01     6.666666667E+00
        6     6.684545924E+00     4.307330652E+01     3.333333333E+00
        7     1.004151757E+01     3.744704441E+00     6.666666667E+00
        8     1.004151757E+01     3.744704441E+00     3.333333333E+00
        9     6.869367661E+00     4.049464597E+00     6.666666667E+00
       10     6.869367661E+00     4.049464597E+00     3.333333333E+00
       11     3.655923056E+00     1.027864676E+01     6.666666667E+00
       12     3.655923056E+00     1.027864676E+01     3.333333333E+00
       13     3.296568324E+00     1.332788046E+01     6.666666667E+00
       14     3.296568324E+00     1.332788046E+01     3.333333333E+00
       15     3.322430975E+00     1.634095153E+01     6.666666667E+00
       16     3.322430975E+00     1.634095153E+01     3.333333333E+00
       17     3.316272526E+00     1.954177898E+01     6.666666667E+00
       18     3.316272526E+00     1.954177898E+01     3.333333333E+00
       19     3.354071649E+00     2.284497584E+01     6.666666667E+00
       20     3.354071649E+00     2.284497584E+01     3.333333333E+00
! ... 1559 like lines cut
/wb,elem,start            !  set before creation of elements
/com,*********** Elements for Body 1 "Solid" ***********
et,1,186
keyo,1,2,1          ! set full integration on SOLID186
eblock,19,solid,,246
(19i9)
        1        1        1        1        0        0        0        0       20        0        1        1       85        9      103      156      114      152      105
      459      502      503      460      908      907      881      882      461      810      504      875
        1        1        1        1        0        0        0        0       20        0        2        1      103        9       85        2      104       10       86
      460      503      502      459      465      507      506      464      457      874      501      809
        1        1        1        1        0        0        0        0       20        0        3        2      104       10       86      157      208      161      199
      465      507      506      464     1014     1029     1028     1013      466      877      508      813
        1        1        1        1        0        0        0        0       20        0        4        1      103      101       11      156      105      106      151
      460      868      512      458      882      879      885     1004      461      875      869      513
        1        1        1        1        0        0        0        0       20        0        5        1       11      101      103        2       12      102      104
      458      512      868      460      463      516      871      465      457      510      867      874
        1        1        1        1        0        0        0        0       20        0        6        2       12      102      104      157      162      207      208
      463      516      871      465     1012     1032     1142     1014      466      517      872      877
        1        1        1        1        0        0        0        0       20        0        7        1       11      423      424      156      151      451      452
      458      514     1543      462     1004     1005     1575     1011      461      513     1545     1548
        1        1        1        1        0        0        0        0       20        0        8        1      424      423       11        2      438      437       12
      462     1543      514      458      467     1562      518      463      457     1547     1544      510
        1        1        1        1        0        0        0        0       20        0        9        2      438      437       12      157      211      212      162
      467     1562      518      463     1015     1151     1033     1012      466     1152     1154      517
        1        1        1        1        0        0        0        0       20        0       10        1      424      425       85      156      452      453      114
      462     1546      812      459     1011     1576      910      908      461     1548     1550      810
! ... 473 like lines cut
!Material Id = {E97D98E0-A5D2-4432-9A7A-F30817A61DC7}
/wb,elem,end               !  done creating elements
/com,*********** Send User Defined Coordinate System(s) ***********
csys,0
toffst,273.15,  ! Temperature offset from absolute zero
/com,*********** Set Reference Temperature ***********
tref,22.
/wb,mat,start              !  starting to send materials
/com,*********** Send Materials ***********
Temperature = 'TEMP' ! Temperature
MP,DENS,1,7.85e-09,	! tonne mm^-3
MP,ALPX,1,1.2e-05,	! C^-1
MP,C,1,434000000,	! mm^2 s^-2 C^-1
MP,KXX,1,60.5,	! tonne mm s^-3 C^-1
MP,RSVX,1,0.00017,	! ohm mm
MP,EX,1,200000,	! tonne s^-2 mm^-1
MP,NUXY,1,0.3,
MP,MURX,1,10000,
MP,UVID,1,7417d8c2-ba5c-4141-84a1-2d6b3a1fefe3
MP,UMID,1,59002a79-71c2-428e-906b-55d7dbee100e

/wb,mat,end                !  done sending materials
!************************* Model Summary ********************
!Solid,	Structural Steel,	matid,	1
!************************* End Model Summary ********************
! get the diagonal of the bounding box. Needed later for other things
*get,_xmin,node,,mnloc,x
*get,_ymin,node,,mnloc,y
*get,_zmin,node,,mnloc,z
*get,_xmax,node,,mxloc,x
*get,_ymax,node,,mxloc,y
*get,_zmax,node,,mxloc,z
_ASMDIAG=(_xmax-_xmin)*(_xmax-_xmin)+(_ymax-_ymin)*(_ymax-_ymin)+(_zmax-_zmin)*(_zmax-_zmin)
_ASMDIAG=SQRT(_ASMDIAG)
/wb,contact,start          !  starting to send contact
/wb,contact,end            !  done creating contacts
/golist
/wb,load,start             !  starting to send loads
/com,*********** Fixed Supports ***********
CMBLOCK,_FIXEDSU,NODE,       40
(8i10)
       224       225       226       227       400       401       402       403
       404       405       406       407       408       409       410       411
      1177      1178      1179      1180      1181      1182      1184      1490
      1491      1492      1493      1494      1495      1496      1497      1498
      1499      1500      1501      1502      1503      1504      1505      1507

cmsel,s,_FIXEDSU
d,all,all
nsel,all
/com,*********** Define Force Using Surface Effect Elements ***********
local,12,0,0.,0.,0.,0.,0.,0.
csys,0
et,2,154
eblock,10,,,9
(15i9)
      597        2        2        2       12      325      319      253      252     1354     1235     1232     1233
      598        2        2        2       12      326      321      319      325     1358     1353     1354     1362
      599        2        2        2       12      327      324      321      326     1361     1357     1358     1364
      600        2        2        2       12      319      320      254      253     1352     1237     1234     1235
      601        2        2        2       12      321      322      320      319     1356     1355     1352     1353
      602        2        2        2       12      324      323      322      321     1360     1359     1356     1357
      603        2        2        2       12      320      316      255      254     1348     1239     1236     1237
      604        2        2        2       12      322      317      316      320     1350     1347     1348     1355
      605        2        2        2       12      323      318      317      322     1351     1349     1350     1359
-1
esel,s,type,,2
keyop,2,2,1                ! Apply load in local coordinate system
keyop,2,7,1                ! Use original area so load is constant in large deformation
esel,all
/gst,on,on
fini
*get,_numnode,node,0,count
*get,_numelem,elem,0,count
*get, _MAXELEMNUM, elem, 0, NUM, MAX
*get, _MAXNODENUM, node, 0, NUM, MAX
*get, _MAXELEMTYPE, etyp, 0, NUM, MAX
*get, _MAXREALCONST, real, 0, NUM, MAX
/go
/wb,load,end               !  done creating loads
/com,--- Number of total nodes = %_numnode%
/com,--- Number of contact elements = 9
/com,--- Number of spring elements = 0
/com,--- Number of bearing elements = 0
/com,--- Number of solid elements = 246
/com,--- Number of condensed parts = 0
/com,--- Number of total elements = %_numelem%
*get,_wallbsol,active,,time,wall
/com,****************************************************************************
/com,*************************    SOLUTION       ********************************
/com,****************************************************************************
/solu
antype,0                   ! static analysis
_thickRatio=  1     ! Ratio of thick parts in the model
eqsl,pcg,1e-8,,,,,,1
cntr,print,1               ! print out contact info and also make no initial contact an error
dmpoption,emat,no             ! Don't combine emat file for DANSYS
dmpoption,esav,no             ! Don't combine esav file for DANSYS
nldiag,cont,iter           ! print out contact info each equilibrium iteration
rescontrol,,none                 ! Do not keep any restart files
/com,****************************************************
/com,******************* SOLVE FOR LS 1 OF 1 ****************
esel,s,type,,2
nsle
sfe,all,1,pres,1,0.
sfe,all,2,pres,1,-9.00000000000068
sfe,all,3,pres,1,0.
nsel,all
esel,all
/nopr
/gopr
nsub,1,1,1
time,1.
outres,erase
outres,all,none
outres,nsol,all,
outres,rsol,all
outres,eangl,all
outres,etmp,all
outres,veng,all
outres,strs,all,
outres,epel,all,
outres,eppl,all,
outres,cont,all,
! *********** WB SOLVE COMMAND ***********
! check interactive state
*get,ANSINTER_,active,,int
*if,ANSINTER_,ne,0,then
/eof
*endif
solve
/com *************** Write FE CONNECTORS ********* 
CEWRITE,file,ce,,INTE
/com,****************************************************
/com,*************** FINISHED SOLVE FOR LS 1 *************
*get,_wallasol,active,,time,wall
/nopr
*get,_numnode,node,0,count
*get,_numelem,elem,0,count
*get, _MAXELEMNUM, elem, 0, NUM, MAX
*get, _MAXNODENUM, node, 0, NUM, MAX,,,INTERNAL
*get, _MAXELEMTYPE, etyp, 0, NUM, MAX
*get, _MAXREALCONST, real, 0, NUM, MAX
/gopr
*get,_PCGITER,active,,solu,cgiter
/post1
xmlo,ENCODING,ISO-8859-1
xmlo,parm
/xml,parm,xml
fini
/gopr
*get,_walldone,active,,time,wall
_preptime=(_wallbsol-_wallstrt)*3600
_solvtime=(_wallasol-_wallbsol)*3600
_posttime=(_walldone-_wallasol)*3600
_totaltim=(_walldone-_wallstrt)*3600
*get,_dlbratio,active,0,solu,dlbr
*get,_combtime,active,0,solu,comb
*get,_ssmode,active,0,solu,ssmm
*get,_ndofs,active,0,solu,ndof
*get,_sol_end_time,active,0,set,time
*if,_sol_end_time,eq,1.000000,then
/fclean				!clean distributed files
*endif
/com,--- Total number of nodes = %_numnode%
/com,--- Total number of elements = %_numelem%
/com,--- Element load balance ratio = %_dlbratio%
/com,--- Time to combine distributed files = %_combtime%
/com,--- Sparse memory mode = %_ssmode%
/com,--- Number of DOF = %_ndofs%
/wb,file,end               ! done with WB generated input
