/batch
/config,noeldb,1     ! force off writing results to database
*get,_wallstrt,active,,time,wall
! ANSYS input file written by Workbench version 2022 R1
! File used for geometry attach: F:\导师论文\论文\全局10mm.x_t
/title,wbnew--Static Structural (A5)
! ****** Begin Custom Load Command Snippet ******
/COM, ACT Extensions:
/COM,     LSDYNA, 2021.1
/COM,     5f463412-bd3e-484b-87e7-cbc0a665e474, wbex
/COM,
! ****** End   Custom Load Command Snippet ******
*DIM,_wb_ProjectScratch_dir,string,248
_wb_ProjectScratch_dir(1) = 'C:\Users\Administrator\AppData\Local\Temp\WB_Administrator_6820_2\_ProjectScratch\ScrF7B4\'
*DIM,_wb_SolverFiles_dir,string,248
_wb_SolverFiles_dir(1) = 'C:\Users\Administrator\AppData\Local\Temp\WB_Administrator_6820_2\wbnew_files\dp0\SYS\MECH\'
*DIM,_wb_userfiles_dir,string,248
_wb_userfiles_dir(1) = 'C:\Users\Administrator\AppData\Local\Temp\WB_Administrator_6820_2\wbnew_files\user_files\'
/com,--- Data in consistent NMM units. See Solving Units in the help system for more information.
/units,MPA
/nopr
/wb,file,start              !  signify a WB generated input file
/prep7
! Turn off shape checking because checks already performed inside WB mesher.
! See help system for more information.
SHPP,OFF,,NOWARN
/nolist
etcon,set             ! allow ANSYS to choose best KEYOP's for 180x elements, resets any applicable keyopt to MAPDL defaults
/com,*********** Nodes for the whole assembly ***********
nblock,3,,1707
(1i9,3e20.9e3)
        1     3.333333333E+00     4.666666667E+01     3.333333333E+00
        2     3.333333333E+00     4.666666667E+01     6.666666667E+00
        3     6.666666667E+00     4.666666667E+01     3.333333333E+00
        4     6.666666667E+00     4.666666667E+01     6.666666667E+00
        5     3.333333333E+00     4.333333333E+01     3.333333333E+00
        6     3.333333333E+00     4.333333333E+01     6.666666667E+00
        7     6.666666667E+00     4.333333333E+01     3.333333333E+00
        8     6.666666667E+00     4.333333333E+01     6.666666667E+00
        9     3.333333333E+00     4.000000000E+01     3.333333333E+00
       10     3.333333333E+00     4.000000000E+01     6.666666667E+00
       11     6.666666667E+00     4.000000000E+01     3.333333333E+00
       12     6.666666667E+00     4.000000000E+01     6.666666667E+00
       13     3.333333333E+00     3.666666667E+01     3.333333333E+00
       14     3.333333333E+00     3.666666667E+01     6.666666667E+00
       15     6.666666667E+00     3.666666667E+01     3.333333333E+00
       16     6.666666667E+00     3.666666667E+01     6.666666667E+00
       17     3.333333333E+00     3.333333333E+01     3.333333333E+00
       18     3.333333333E+00     3.333333333E+01     6.666666667E+00
       19     6.666666667E+00     3.333333333E+01     3.333333333E+00
       20     6.666666667E+00     3.333333333E+01     6.666666667E+00
! ... 1533 like lines cut
/wb,elem,start            !  set before creation of elements
/com,*********** Elements for Body 1 "Part 1" ***********
et,1,186
keyo,1,2,1          ! set full integration on SOLID186
eblock,19,solid,,243
(19i9)
        1        1        1        1        0        0        0        0       20        0        1        1      421      405      398      156      435      404      403
      454     1484     1474      453     1000     1482     1480      999      452     1514     1481     1473
        1        1        1        1        0        0        0        0       20        0        2        1      398      405      421        2      400      406      407
      453     1474     1484      454      458     1478     1485      459      449     1472     1483     1487
        1        1        1        1        0        0        0        0       20        0        3        2      400      406      407      157      224      223      222
      458     1478     1485      459     1004     1162     1160     1003      457     1165     1163     1161
        1        1        1        1        0        0        0        0       20        0        4        1        5      422      421      156      154      436      435
      451      473     1513      454      994      995     1540     1000      452      472     1516     1514
        1        1        1        1        0        0        0        0       20        0        5        1      421      422        5        2      407      408        6
      454     1513      473      451      459     1486      477      456      449     1487     1489      469
        1        1        1        1        0        0        0        0       20        0        6        2      407      408        6      157      222      221      159
      459     1486      477      456     1003     1158     1010     1002      457     1161     1159      476
        1        1        1        1        0        0        0        0       20        0        7        5        9      423      422      154      152      437      436
      471      489     1515      473      989      990     1541      995      472      488     1518     1516
        1        1        1        1        0        0        0        0       20        0        8        5      422      423        9        6      408      409       10
      473     1515      489      471      477     1488      493      475      469     1489     1491      485
        1        1        1        1        0        0        0        0       20        0        9        6      408      409       10      159      221      220      161
      477     1488      493      475     1010     1156     1015     1009      476     1159     1157      492
        1        1        1        1        0        0        0        0       20        0       10        9       13      424      423      152      150      438      437
      487      505     1517      489      984      985     1542      990      488      504     1520     1518
! ... 467 like lines cut
!Material Id = {1A8B2DA1-614C-4C83-891E-7F698EF9435D}
/wb,elem,end               !  done creating elements
/com,*********** Send User Defined Coordinate System(s) ***********
csys,0
toffst,273.15,  ! Temperature offset from absolute zero
/com,*********** Set Reference Temperature ***********
tref,22.
/wb,mat,start              !  starting to send materials
/com,*********** Send Materials ***********
Temperature = 'TEMP' ! Temperature
MP,DENS,1,7.85e-09,	! tonne mm^-3
MP,ALPX,1,1.2e-05,	! C^-1
MP,C,1,434000000,	! mm^2 s^-2 C^-1
MP,KXX,1,60.5,	! tonne mm s^-3 C^-1
MP,RSVX,1,0.00017,	! ohm mm
MP,EX,1,200000,	! tonne s^-2 mm^-1
MP,NUXY,1,0.3,
MP,MURX,1,10000,
MP,UVID,1,7417d8c2-ba5c-4141-84a1-2d6b3a1fefe3
MP,UMID,1,59002a79-71c2-428e-906b-55d7dbee100e

/wb,mat,end                !  done sending materials
!************************* Model Summary ********************
!Part 1,	Structural Steel,	matid,	1
!************************* End Model Summary ********************
! get the diagonal of the bounding box. Needed later for other things
*get,_xmin,node,,mnloc,x
*get,_ymin,node,,mnloc,y
*get,_zmin,node,,mnloc,z
*get,_xmax,node,,mxloc,x
*get,_ymax,node,,mxloc,y
*get,_zmax,node,,mxloc,z
_ASMDIAG=(_xmax-_xmin)*(_xmax-_xmin)+(_ymax-_ymin)*(_ymax-_ymin)+(_zmax-_zmin)*(_zmax-_zmin)
_ASMDIAG=SQRT(_ASMDIAG)
/wb,contact,start          !  starting to send contact
/wb,contact,end            !  done creating contacts
/golist
/wb,load,start             !  starting to send loads
/com,*********** Fixed Supports ***********
CMBLOCK,_FIXEDSU,NODE,       40
(8i10)
       223       224       225       226       395       396       397       398
       399       400       401       402       403       404       405       406
      1162      1163      1164      1165      1166      1167      1169      1466
      1467      1468      1469      1470      1471      1472      1473      1474
      1475      1476      1477      1478      1479      1480      1481      1483

cmsel,s,_FIXEDSU
d,all,all
nsel,all
/com,*********** Define Force Using Surface Effect Elements ***********
local,12,0,0.,0.,0.,0.,0.,0.
csys,0
et,2,154
eblock,10,,,9
(15i9)
      586        2        2        2       12      324      317      322      323     1339     1338     1345     1346
      587        2        2        2       12      325      319      317      324     1343     1337     1339     1348
      588        2        2        2       12      250      251      319      325     1216     1219     1343     1217
      589        2        2        2       12      317      318      321      322     1336     1341     1344     1338
      590        2        2        2       12      319      320      318      317     1342     1340     1336     1337
      591        2        2        2       12      251      252      320      319     1218     1221     1342     1219
      592        2        2        2       12      318      315      314      321     1334     1331     1332     1341
      593        2        2        2       12      320      316      315      318     1335     1333     1334     1340
      594        2        2        2       12      252      253      316      320     1220     1223     1335     1221
-1
esel,s,type,,2
keyop,2,2,1                ! Apply load in local coordinate system
keyop,2,7,1                ! Use original area so load is constant in large deformation
esel,all
/gst,on,on
fini
*get,_numnode,node,0,count
*get,_numelem,elem,0,count
*get, _MAXELEMNUM, elem, 0, NUM, MAX
*get, _MAXNODENUM, node, 0, NUM, MAX
*get, _MAXELEMTYPE, etyp, 0, NUM, MAX
*get, _MAXREALCONST, real, 0, NUM, MAX
/go
/wb,load,end               !  done creating loads
/com,--- Number of total nodes = %_numnode%
/com,--- Number of contact elements = 9
/com,--- Number of spring elements = 0
/com,--- Number of bearing elements = 0
/com,--- Number of solid elements = 243
/com,--- Number of condensed parts = 0
/com,--- Number of total elements = %_numelem%
*get,_wallbsol,active,,time,wall
/com,****************************************************************************
/com,*************************    SOLUTION       ********************************
/com,****************************************************************************
/solu
antype,0                   ! static analysis
_thickRatio=  1     ! Ratio of thick parts in the model
eqsl,pcg,1e-8,,,,,,1
cntr,print,1               ! print out contact info and also make no initial contact an error
dmpoption,emat,no             ! Don't combine emat file for DANSYS
dmpoption,esav,no             ! Don't combine esav file for DANSYS
nldiag,cont,iter           ! print out contact info each equilibrium iteration
rescontrol,,none                 ! Do not keep any restart files
/com,****************************************************
/com,******************* SOLVE FOR LS 1 OF 1 ****************
esel,s,type,,2
nsle
sfe,all,1,pres,1,0.
sfe,all,2,pres,1,-9.00000000000068
sfe,all,3,pres,1,0.
nsel,all
esel,all
/nopr
/gopr
nsub,1,1,1
time,1.
outres,erase
outres,all,none
outres,nsol,all,
outres,rsol,all
outres,eangl,all
outres,etmp,all
outres,veng,all
outres,strs,all,
outres,epel,all,
outres,eppl,all,
outres,cont,all,
! *********** WB SOLVE COMMAND ***********
! check interactive state
*get,ANSINTER_,active,,int
*if,ANSINTER_,ne,0,then
/eof
*endif
solve
/com *************** Write FE CONNECTORS ********* 
CEWRITE,file,ce,,INTE
/com,****************************************************
/com,*************** FINISHED SOLVE FOR LS 1 *************
*get,_wallasol,active,,time,wall
/nopr
*get,_numnode,node,0,count
*get,_numelem,elem,0,count
*get, _MAXELEMNUM, elem, 0, NUM, MAX
*get, _MAXNODENUM, node, 0, NUM, MAX,,,INTERNAL
*get, _MAXELEMTYPE, etyp, 0, NUM, MAX
*get, _MAXREALCONST, real, 0, NUM, MAX
/gopr
*get,_PCGITER,active,,solu,cgiter
/post1
xmlo,ENCODING,ISO-8859-1
xmlo,parm
/xml,parm,xml
fini
/gopr
*get,_walldone,active,,time,wall
_preptime=(_wallbsol-_wallstrt)*3600
_solvtime=(_wallasol-_wallbsol)*3600
_posttime=(_walldone-_wallasol)*3600
_totaltim=(_walldone-_wallstrt)*3600
*get,_dlbratio,active,0,solu,dlbr
*get,_combtime,active,0,solu,comb
*get,_ssmode,active,0,solu,ssmm
*get,_ndofs,active,0,solu,ndof
*get,_sol_end_time,active,0,set,time
*if,_sol_end_time,eq,1.000000,then
/fclean				!clean distributed files
*endif
/com,--- Total number of nodes = %_numnode%
/com,--- Total number of elements = %_numelem%
/com,--- Element load balance ratio = %_dlbratio%
/com,--- Time to combine distributed files = %_combtime%
/com,--- Sparse memory mode = %_ssmode%
/com,--- Number of DOF = %_ndofs%
/wb,file,end               ! done with WB generated input
