/batch
/config,noeldb,1     ! force off writing results to database
*get,_wallstrt,active,,time,wall
! ANSYS input file written by Workbench version 2022 R1
! File used for geometry attach: E:\ANSYS学习素材\第七课\几何模型\虎钳.x_t
/title,stduy_6--Static Structural (C5)
! ****** Begin Custom Load Command Snippet ******
/COM, ACT Extensions:
/COM,     LSDYNA, 2021.1
/COM,     5f463412-bd3e-484b-87e7-cbc0a665e474, wbex
/COM,
! ****** End   Custom Load Command Snippet ******
*DIM,_wb_ProjectScratch_dir,string,248
_wb_ProjectScratch_dir(1) = 'E:\ansys\ansys-code\_ProjectScratch\Scr9BBB\'
*DIM,_wb_SolverFiles_dir,string,248
_wb_SolverFiles_dir(1) = 'E:\ansys\ansys-code\stduy_6_files\dp0\SYS-2\MECH\'
*DIM,_wb_userfiles_dir,string,248
_wb_userfiles_dir(1) = 'E:\ansys\ansys-code\stduy_6_files\user_files\'
/com,--- Data in consistent NMM units. See Solving Units in the help system for more information.
/units,MPA
/nopr
/wb,file,start              !  signify a WB generated input file
/prep7
! Turn off shape checking because checks already performed inside WB mesher.
! See help system for more information.
SHPP,OFF,,NOWARN
/nolist
etcon,set             ! allow ANSYS to choose best KEYOP's for 180x elements, resets any applicable keyopt to MAPDL defaults
/com,*********** Nodes for the whole assembly ***********
nblock,3,,13504
(1i9,3e20.9e3)
        1     6.350000000E+00    -6.970723170E-16     0.000000000E+00
        2     4.490128061E+00    -4.490128061E+00     0.000000000E+00
        3    -2.099777482E-16    -6.350000000E+00     0.000000000E+00
        4    -4.490128061E+00    -4.490128061E+00     0.000000000E+00
        5    -6.350000000E+00     8.057840046E-17     0.000000000E+00
        6    -4.490128061E+00     4.490128061E+00     0.000000000E+00
        7    -2.099777482E-16     6.350000000E+00     0.000000000E+00
        8     4.490128061E+00     4.490128061E+00     0.000000000E+00
        9     6.350000000E+00     8.582291179E-16     2.540000000E+01
       10     4.490128061E+00     4.490128061E+00     2.540000000E+01
       11    -2.099777482E-16     6.350000000E+00     2.540000000E+01
       12    -4.490128061E+00     4.490128061E+00     2.540000000E+01
       13    -6.350000000E+00     8.057840046E-17     2.540000000E+01
       14    -4.490128061E+00    -4.490128061E+00     2.540000000E+01
       15    -2.099777482E-16    -6.350000000E+00     2.540000000E+01
       16     4.490128061E+00    -4.490128061E+00     2.540000000E+01
       17    -7.937500000E+00    -8.914849964E-16     2.857500000E+01
       18    -6.421572393E+00    -4.665545440E+00     2.857500000E+01
       19    -2.452822393E+00    -7.549011098E+00     2.857500000E+01
       20     2.452822393E+00    -7.549011098E+00     2.857500000E+01
! ... 12258 like lines cut
/wb,elem,start            !  set before creation of elements
/com,*********** Elements for Body 1 "flat" ***********
et,1,186
keyo,1,2,1          ! set full integration on SOLID186
eblock,19,solid,,902
(19i9)
        1        1        1        1        0        0        0        0       20        0      229      508     1927     1917     1875     1307     1928     1916     1915
     2025     5738     5695     2024     4519     5737     5735     4518     2022     5758     5736     5694
        1        1        1        1        0        0        0        0       20        0      230      508     1875     1917     1927     1308     1760     1759     1758
     2024     5695     5738     2025     4523     5473     5471     4522     2023     5476     5474     5472
        1        1        1        1        0        0        0        0       20        0      231      508      548     1926     1927     1307     1267     1929     1928
     2021     2225     5756     2025     4437     4438     5759     4519     2022     2223     5757     5758
        1        1        1        1        0        0        0        0       20        0      232      508     1927     1926      548     1308     1758     1757     1348
     2025     5756     2225     2021     4522     5469     4643     4521     2023     5472     5470     2224
        1        1        1        1        0        0        0        0       20        0      233      548      588     1925     1926     1267     1227     1930     1929
     2222     2386     5754     2225     4356     4357     5760     4438     2223     2384     5755     5757
        1        1        1        1        0        0        0        0       20        0      234      548     1926     1925      588     1348     1757     1756     1388
     2225     5754     2386     2222     4643     5467     4724     4642     2224     5470     5468     2385
        1        1        1        1        0        0        0        0       20        0      235      588      628     1924     1925     1227     1187     1931     1930
     2383     2547     5752     2386     4275     4276     5761     4357     2384     2545     5753     5755
        1        1        1        1        0        0        0        0       20        0      236      588     1925     1924      628     1388     1756     1755     1428
     2386     5752     2547     2383     4724     5465     4805     4723     2385     5468     5466     2546
        1        1        1        1        0        0        0        0       20        0      237      628      668     1923     1924     1187     1147     1932     1931
     2544     2708     5750     2547     4194     4195     5762     4276     2545     2706     5751     5753
        1        1        1        1        0        0        0        0       20        0      238      628     1924     1923      668     1428     1755     1754     1468
     2547     5750     2708     2544     4805     5463     4886     4804     2546     5466     5464     2707
! ... 1785 like lines cut
!Material Id = {F9FC119C-5214-49C6-8B7F-5A56A7AF223F}
/com,*********** Elements for Body 2 "pin" ***********
et,2,187
eblock,19,solid,,228
(19i9)
        2        2        2        2        0        0        0        0       10        0        1       66       92       96       94      403      505      405      404
      504      507
        2        2        2        2        0        0        0        0       10        0        2       58       96       66       92      364      405      360      363
      505      403
        2        2        2        2        0        0        0        0       10        0        3       16       58       96       66      248      364      252      249
      360      405
        2        2        2        2        0        0        0        0       10        0        4       58       65       96       92      359      399      364      363
      398      505
        2        2        2        2        0        0        0        0       10        0        5       15       65       96       58      241      399      243      240
      359      364
        2        2        2        2        0        0        0        0       10        0        6       60       96       70       92      377      424      372      375
      505      423
        2        2        2        2        0        0        0        0       10        0        7       13       96       70       60      225      424      223      222
      377      372
        2        2        2        2        0        0        0        0       10        0        8       65       70       96       92      396      424      399      398
      423      505
        2        2        2        2        0        0        0        0       10        0        9       14       70       96       65      232      424      234      231
      396      399
        2        2        2        2        0        0        0        0       10        0       10       15       96       16       58      243      252      235      240
      364      248
! ... 437 like lines cut
!Material Id = {2CFD2919-E3C7-4DC6-8043-7C30AF4A1AE1}
/com,*********** Elements for Body 3 "arm" ***********
et,3,187
eblock,19,solid,,1573
(19i9)
        3        3        3        3        0        0        0        0       10        0     1131     6120     6457     6404     6445     7729     9032     7727     7728
     9080     9031
        3        3        3        3        0        0        0        0       10        0     1132     6239     6404     6457     6445     8254     9032     8256     8255
     9031     9080
        3        3        3        3        0        0        0        0       10        0     1133     6029     6457     6176     6105     7229     7960     7225     7224
     7654     7653
        3        3        3        3        0        0        0        0       10        0     1134     6239     6457     6258     6445     8256     8340     8253     8255
     9080     8339
        3        3        3        3        0        0        0        0       10        0     1135     6120     6258     6457     6445     7725     8340     7729     7728
     8339     9080
        3        3        3        3        0        0        0        0       10        0     1136     6041     6457     6239     6404     7312     8256     7309     7311
     9032     8254
        3        3        3        3        0        0        0        0       10        0     1137     6120     6457     6176     6404     7729     7960     7724     7727
     9032     7958
        3        3        3        3        0        0        0        0       10        0     1138     6105     6120     6457     6176     7651     7729     7654     7653
     7724     7960
        3        3        3        3        0        0        0        0       10        0     1139     6025     6105     6457     6029     7201     7654     7205     7199
     7224     7229
        3        3        3        3        0        0        0        0       10        0     1140     6106     6120     6258     6457     7656     7725     7660     7661
     7729     8340
! ... 3127 like lines cut
!Material Id = {3E28671F-BBBD-4A7D-AFF1-EBEC3D5BAB6D}
/com,*********** Elements for Body 4 "arm" ***********
et,4,187
eblock,19,solid,,1573
(19i9)
        4        4        4        4        0        0        0        0       10        0     2704     9314     9651     9598     9639    10923    12226    10921    10922
    12274    12225
        4        4        4        4        0        0        0        0       10        0     2705     9433     9598     9651     9639    11448    12226    11450    11449
    12225    12274
        4        4        4        4        0        0        0        0       10        0     2706     9223     9651     9370     9299    10423    11154    10419    10418
    10848    10847
        4        4        4        4        0        0        0        0       10        0     2707     9433     9651     9452     9639    11450    11534    11447    11449
    12274    11533
        4        4        4        4        0        0        0        0       10        0     2708     9314     9452     9651     9639    10919    11534    10923    10922
    11533    12274
        4        4        4        4        0        0        0        0       10        0     2709     9235     9651     9433     9598    10506    11450    10503    10505
    12226    11448
        4        4        4        4        0        0        0        0       10        0     2710     9314     9651     9370     9598    10923    11154    10918    10921
    12226    11152
        4        4        4        4        0        0        0        0       10        0     2711     9299     9314     9651     9370    10845    10923    10848    10847
    10918    11154
        4        4        4        4        0        0        0        0       10        0     2712     9219     9299     9651     9223    10395    10848    10399    10393
    10418    10423
        4        4        4        4        0        0        0        0       10        0     2713     9300     9314     9452     9651    10850    10919    10854    10855
    10923    11534
! ... 3127 like lines cut
!Material Id = {102D72CE-35D7-4656-9C41-EB00E0978409}
/wb,elem,end               !  done creating elements
/com,*********** Send User Defined Coordinate System(s) ***********
csys,0
toffst,273.15,  ! Temperature offset from absolute zero
/com,*********** Set Reference Temperature ***********
tref,22.
/wb,mat,start              !  starting to send materials
/com,*********** Send Materials ***********
Temperature = 'TEMP' ! Temperature
MP,DENS,1,7.85e-09,	! tonne mm^-3
MP,ALPX,1,1.2e-05,	! C^-1
MP,C,1,434000000,	! mm^2 s^-2 C^-1
MP,KXX,1,60.5,	! tonne mm s^-3 C^-1
MP,RSVX,1,0.00017,	! ohm mm
MP,EX,1,200000,	! tonne s^-2 mm^-1
MP,NUXY,1,0.3,
MP,MURX,1,10000,
MP,UVID,1,98915189-b8e4-4f6d-bd37-9cf27907b9b3
MP,UMID,1,59002a79-71c2-428e-906b-55d7dbee100e

Temperature = 'TEMP' ! Temperature
MP,DENS,2,7.85e-09,	! tonne mm^-3
MP,ALPX,2,1.2e-05,	! C^-1
MP,C,2,434000000,	! mm^2 s^-2 C^-1
MP,KXX,2,60.5,	! tonne mm s^-3 C^-1
MP,RSVX,2,0.00017,	! ohm mm
MP,EX,2,200000,	! tonne s^-2 mm^-1
MP,NUXY,2,0.3,
MP,MURX,2,10000,
MP,UVID,2,98915189-b8e4-4f6d-bd37-9cf27907b9b3
MP,UMID,2,59002a79-71c2-428e-906b-55d7dbee100e

Temperature = 'TEMP' ! Temperature
MP,DENS,3,7.85e-09,	! tonne mm^-3
MP,ALPX,3,1.2e-05,	! C^-1
MP,C,3,434000000,	! mm^2 s^-2 C^-1
MP,KXX,3,60.5,	! tonne mm s^-3 C^-1
MP,RSVX,3,0.00017,	! ohm mm
MP,EX,3,200000,	! tonne s^-2 mm^-1
MP,NUXY,3,0.3,
MP,MURX,3,10000,
MP,UVID,3,98915189-b8e4-4f6d-bd37-9cf27907b9b3
MP,UMID,3,59002a79-71c2-428e-906b-55d7dbee100e

Temperature = 'TEMP' ! Temperature
MP,DENS,4,7.85e-09,	! tonne mm^-3
MP,ALPX,4,1.2e-05,	! C^-1
MP,C,4,434000000,	! mm^2 s^-2 C^-1
MP,KXX,4,60.5,	! tonne mm s^-3 C^-1
MP,RSVX,4,0.00017,	! ohm mm
MP,EX,4,200000,	! tonne s^-2 mm^-1
MP,NUXY,4,0.3,
MP,MURX,4,10000,
MP,UVID,4,98915189-b8e4-4f6d-bd37-9cf27907b9b3
MP,UMID,4,59002a79-71c2-428e-906b-55d7dbee100e

/wb,mat,end                !  done sending materials
!************************* Model Summary ********************
!flat,	Structural Steel,	matid,	1
!pin,	Structural Steel,	matid,	2
!arm,	Structural Steel,	matid,	3
!arm,	Structural Steel,	matid,	4
!************************* End Model Summary ********************
! get the diagonal of the bounding box. Needed later for other things
*get,_xmin,node,,mnloc,x
*get,_ymin,node,,mnloc,y
*get,_zmin,node,,mnloc,z
*get,_xmax,node,,mxloc,x
*get,_ymax,node,,mxloc,y
*get,_zmax,node,,mxloc,z
_ASMDIAG=(_xmax-_xmin)*(_xmax-_xmin)+(_ymax-_ymin)*(_ymax-_ymin)+(_zmax-_zmin)*(_zmax-_zmin)
_ASMDIAG=SQRT(_ASMDIAG)
/wb,contact,start          !  starting to send contact
/com,*********** Create Contact "Contact Region" ***********
/com,            Real Constant Set For Above Contact Is 6 & 5 
*set,tid,6
*set,cid,5
r,tid
r,cid
et,tid,170
et,cid,174
eblock,10,,,28
(15i9)
     7503        6        6        6        0     1250     1210     1211     1251     4323     4322     4325     4403
     7504        6        6        6        0     1210     1170     1171     1211     4242     4241     4244     4322
     7505        6        6        6        0     1170     1130     1131     1171     4161     4160     4163     4241
     7506        6        6        6        0     1130     1090     1091     1131     4080     4079     4082     4160
     7507        6        6        6        0     1249     1209     1210     1250     4321     4320     4323     4401
     7508        6        6        6        0     1209     1169     1170     1210     4240     4239     4242     4320
     7509        6        6        6        0     1169     1129     1130     1170     4159     4158     4161     4239
     7510        6        6        6        0     1129     1089     1090     1130     4078     4077     4080     4158
     7511        6        6        6        0     1248     1208     1209     1249     4319     4318     4321     4399
     7512        6        6        6        0     1208     1168     1169     1209     4238     4237     4240     4318
     7513        6        6        6        0     1168     1128     1129     1169     4157     4156     4159     4237
     7514        6        6        6        0     1128     1088     1089     1129     4076     4075     4078     4156
     7515        6        6        6        0     1247     1207     1208     1248     4317     4316     4319     4397
     7516        6        6        6        0     1207     1167     1168     1208     4236     4235     4238     4316
     7517        6        6        6        0     1167     1127     1128     1168     4155     4154     4157     4235
     7518        6        6        6        0     1127     1087     1088     1128     4074     4073     4076     4154
     7519        6        6        6        0     1246     1206     1207     1247     4315     4314     4317     4395
     7520        6        6        6        0     1206     1166     1167     1207     4234     4233     4236     4314
     7521        6        6        6        0     1166     1126     1127     1167     4153     4152     4155     4233
     7522        6        6        6        0     1126     1086     1087     1127     4072     4071     4074     4152
! ... 9 like lines cut
eblock,10,,,28
(15i9)
     7531        5        5        5        0     1250     1210     1211     1251     4323     4322     4325     4403
     7532        5        5        5        0     1210     1170     1171     1211     4242     4241     4244     4322
     7533        5        5        5        0     1170     1130     1131     1171     4161     4160     4163     4241
     7534        5        5        5        0     1130     1090     1091     1131     4080     4079     4082     4160
     7535        5        5        5        0     1249     1209     1210     1250     4321     4320     4323     4401
     7536        5        5        5        0     1209     1169     1170     1210     4240     4239     4242     4320
     7537        5        5        5        0     1169     1129     1130     1170     4159     4158     4161     4239
     7538        5        5        5        0     1129     1089     1090     1130     4078     4077     4080     4158
     7539        5        5        5        0     1248     1208     1209     1249     4319     4318     4321     4399
     7540        5        5        5        0     1208     1168     1169     1209     4238     4237     4240     4318
     7541        5        5        5        0     1168     1128     1129     1169     4157     4156     4159     4237
     7542        5        5        5        0     1128     1088     1089     1129     4076     4075     4078     4156
     7543        5        5        5        0     1247     1207     1208     1248     4317     4316     4319     4397
     7544        5        5        5        0     1207     1167     1168     1208     4236     4235     4238     4316
     7545        5        5        5        0     1167     1127     1128     1168     4155     4154     4157     4235
     7546        5        5        5        0     1127     1087     1088     1128     4074     4073     4076     4154
     7547        5        5        5        0     1246     1206     1207     1247     4315     4314     4317     4395
     7548        5        5        5        0     1206     1166     1167     1207     4234     4233     4236     4314
     7549        5        5        5        0     1166     1126     1127     1167     4153     4152     4155     4233
     7550        5        5        5        0     1126     1086     1087     1127     4072     4071     4074     4152
! ... 9 like lines cut
eblock,10,,,20
(15i9)
     7559        5        6        5        0     6194     6206     6197     6197     8035     8044     6197     8034
     7560        5        6        5        0     6197     6206     6345     6345     8044     8107     6345     8045
     7561        5        6        5        0     6184     6346     6210     6210     7995     8125     6210     7994
     7562        5        6        5        0     6134     6196     6140     6140     7806     7826     6140     7805
     7563        5        6        5        0     6209     6210     6346     6346     8120     8125     6346     8122
     7564        5        6        5        0     6208     6346     6345     6345     8117     8804     6345     8116
     7565        5        6        5        0     6137     6138     6346     6346     7815     7821     6346     7816
     7566        5        6        5        0     6138     6345     6346     6346     7820     8804     6346     7821
     7567        5        6        5        0     6136     6346     6185     6185     7813     7998     6185     7812
     7568        5        6        5        0     6184     6185     6346     6346     7992     7998     6346     7995
     7569        5        6        5        0     6139     6140     6345     6345     7823     7827     6345     7824
     7570        5        6        5        0     6183     6184     6210     6210     7989     7994     6210     7991
     7571        5        6        5        0     6126     6136     6185     6185     7764     7812     6185     7765
     7572        5        6        5        0     6207     6208     6345     6345     8110     8116     6345     8112
     7573        5        6        5        0     6138     6139     6345     6345     7819     7824     6345     7820
     7574        5        6        5        0     6140     6196     6345     6345     7826     8042     6345     7827
     7575        5        6        5        0     6136     6137     6346     6346     7811     7816     6346     7813
     7576        5        6        5        0     6206     6207     6345     6345     8105     8112     6345     8107
     7577        5        6        5        0     6208     6209     6346     6346     8113     8122     6346     8117
     7578        5        6        5        0     6196     6197     6345     6345     8041     8045     6345     8042
-1
eblock,10,,,20
(15i9)
     7579        6        5        6        0     6194     6206     6197     6197     8035     8044     6197     8034
     7580        6        5        6        0     6197     6206     6345     6345     8044     8107     6345     8045
     7581        6        5        6        0     6184     6346     6210     6210     7995     8125     6210     7994
     7582        6        5        6        0     6134     6196     6140     6140     7806     7826     6140     7805
     7583        6        5        6        0     6209     6210     6346     6346     8120     8125     6346     8122
     7584        6        5        6        0     6208     6346     6345     6345     8117     8804     6345     8116
     7585        6        5        6        0     6137     6138     6346     6346     7815     7821     6346     7816
     7586        6        5        6        0     6138     6345     6346     6346     7820     8804     6346     7821
     7587        6        5        6        0     6136     6346     6185     6185     7813     7998     6185     7812
     7588        6        5        6        0     6184     6185     6346     6346     7992     7998     6346     7995
     7589        6        5        6        0     6139     6140     6345     6345     7823     7827     6345     7824
     7590        6        5        6        0     6183     6184     6210     6210     7989     7994     6210     7991
     7591        6        5        6        0     6126     6136     6185     6185     7764     7812     6185     7765
     7592        6        5        6        0     6207     6208     6345     6345     8110     8116     6345     8112
     7593        6        5        6        0     6138     6139     6345     6345     7819     7824     6345     7820
     7594        6        5        6        0     6140     6196     6345     6345     7826     8042     6345     7827
     7595        6        5        6        0     6136     6137     6346     6346     7811     7816     6346     7813
     7596        6        5        6        0     6206     6207     6345     6345     8105     8112     6345     8107
     7597        6        5        6        0     6208     6209     6346     6346     8113     8122     6346     8117
     7598        6        5        6        0     6196     6197     6345     6345     8041     8045     6345     8042
-1
keyo,cid,8,2               ! auto create asymmetric contact (from Program Controlled setting)
keyo,cid,10,0              ! adjust contact stiffness each NR iteration (from Program Controlled setting)
keyo,cid,12,5              ! bonded always
keyo,cid,18,1              ! small sliding turned on by application
keyo,cid,2,0               ! augmented Lagrange (from Program Controlled setting)
keyo,cid,4,0               ! on Gauss point (from Program Controlled setting)
keyo,cid,9,1               ! ignore initial gaps/penetration
keyo,cid,7,0               ! No Prediction
rmod,tid,3,10.      ! FKN
rmod,tid,5,0.       ! ICONT
rmod,tid,6,0.       ! PINB
rmod,tid,10,0.      ! CNOF
rmod,tid,12,0.      ! FKT
rmod,tid,36,35      ! WB DSID
rmod,cid,3,10.      ! FKN
rmod,cid,5,0.       ! ICONT
rmod,cid,6,0.       ! PINB
rmod,cid,10,0.      ! CNOF
rmod,cid,12,0.      ! FKT
rmod,cid,36,35      ! WB DSID
/com,*********** Create Contact "Contact Region 2" ***********
/com,            Real Constant Set For Above Contact Is 8 & 7 
*set,tid,8
*set,cid,7
r,tid
r,cid
et,tid,170
et,cid,174
eblock,10,,,28
(15i9)
     7599        8        8        8        0     1404     1405     1365     1364     4755     4677     4674     4675
     7600        8        8        8        0     1444     1445     1405     1404     4836     4758     4755     4756
     7601        8        8        8        0     1484     1485     1445     1444     4917     4839     4836     4837
     7602        8        8        8        0     1524     1525     1485     1484     4998     4920     4917     4918
     7603        8        8        8        0     1405     1406     1366     1365     4757     4679     4676     4677
     7604        8        8        8        0     1445     1446     1406     1405     4838     4760     4757     4758
     7605        8        8        8        0     1485     1486     1446     1445     4919     4841     4838     4839
     7606        8        8        8        0     1525     1526     1486     1485     5000     4922     4919     4920
     7607        8        8        8        0     1406     1407     1367     1366     4759     4681     4678     4679
     7608        8        8        8        0     1446     1447     1407     1406     4840     4762     4759     4760
     7609        8        8        8        0     1486     1487     1447     1446     4921     4843     4840     4841
     7610        8        8        8        0     1526     1527     1487     1486     5002     4924     4921     4922
     7611        8        8        8        0     1407     1408     1368     1367     4761     4683     4680     4681
     7612        8        8        8        0     1447     1448     1408     1407     4842     4764     4761     4762
     7613        8        8        8        0     1487     1488     1448     1447     4923     4845     4842     4843
     7614        8        8        8        0     1527     1528     1488     1487     5004     4926     4923     4924
     7615        8        8        8        0     1408     1409     1369     1368     4763     4685     4682     4683
     7616        8        8        8        0     1448     1449     1409     1408     4844     4766     4763     4764
     7617        8        8        8        0     1488     1489     1449     1448     4925     4847     4844     4845
     7618        8        8        8        0     1528     1529     1489     1488     5006     4928     4925     4926
! ... 9 like lines cut
eblock,10,,,28
(15i9)
     7627        7        7        7        0     1404     1405     1365     1364     4755     4677     4674     4675
     7628        7        7        7        0     1444     1445     1405     1404     4836     4758     4755     4756
     7629        7        7        7        0     1484     1485     1445     1444     4917     4839     4836     4837
     7630        7        7        7        0     1524     1525     1485     1484     4998     4920     4917     4918
     7631        7        7        7        0     1405     1406     1366     1365     4757     4679     4676     4677
     7632        7        7        7        0     1445     1446     1406     1405     4838     4760     4757     4758
     7633        7        7        7        0     1485     1486     1446     1445     4919     4841     4838     4839
     7634        7        7        7        0     1525     1526     1486     1485     5000     4922     4919     4920
     7635        7        7        7        0     1406     1407     1367     1366     4759     4681     4678     4679
     7636        7        7        7        0     1446     1447     1407     1406     4840     4762     4759     4760
     7637        7        7        7        0     1486     1487     1447     1446     4921     4843     4840     4841
     7638        7        7        7        0     1526     1527     1487     1486     5002     4924     4921     4922
     7639        7        7        7        0     1407     1408     1368     1367     4761     4683     4680     4681
     7640        7        7        7        0     1447     1448     1408     1407     4842     4764     4761     4762
     7641        7        7        7        0     1487     1488     1448     1447     4923     4845     4842     4843
     7642        7        7        7        0     1527     1528     1488     1487     5004     4926     4923     4924
     7643        7        7        7        0     1408     1409     1369     1368     4763     4685     4682     4683
     7644        7        7        7        0     1448     1449     1409     1408     4844     4766     4763     4764
     7645        7        7        7        0     1488     1489     1449     1448     4925     4847     4844     4845
     7646        7        7        7        0     1528     1529     1489     1488     5006     4928     4925     4926
! ... 9 like lines cut
eblock,10,,,20
(15i9)
     7655        7        8        7        0     9388     9400     9391     9391    11229    11238     9391    11228
     7656        7        8        7        0     9391     9400     9539     9539    11238    11301     9539    11239
     7657        7        8        7        0     9378     9540     9404     9404    11189    11319     9404    11188
     7658        7        8        7        0     9328     9390     9334     9334    11000    11020     9334    10999
     7659        7        8        7        0     9403     9404     9540     9540    11314    11319     9540    11316
     7660        7        8        7        0     9402     9540     9539     9539    11311    11998     9539    11310
     7661        7        8        7        0     9331     9332     9540     9540    11009    11015     9540    11010
     7662        7        8        7        0     9332     9539     9540     9540    11014    11998     9540    11015
     7663        7        8        7        0     9330     9540     9379     9379    11007    11192     9379    11006
     7664        7        8        7        0     9378     9379     9540     9540    11186    11192     9540    11189
     7665        7        8        7        0     9333     9334     9539     9539    11017    11021     9539    11018
     7666        7        8        7        0     9377     9378     9404     9404    11183    11188     9404    11185
     7667        7        8        7        0     9320     9330     9379     9379    10958    11006     9379    10959
     7668        7        8        7        0     9401     9402     9539     9539    11304    11310     9539    11306
     7669        7        8        7        0     9332     9333     9539     9539    11013    11018     9539    11014
     7670        7        8        7        0     9334     9390     9539     9539    11020    11236     9539    11021
     7671        7        8        7        0     9330     9331     9540     9540    11005    11010     9540    11007
     7672        7        8        7        0     9400     9401     9539     9539    11299    11306     9539    11301
     7673        7        8        7        0     9402     9403     9540     9540    11307    11316     9540    11311
     7674        7        8        7        0     9390     9391     9539     9539    11235    11239     9539    11236
-1
eblock,10,,,20
(15i9)
     7675        8        7        8        0     9388     9400     9391     9391    11229    11238     9391    11228
     7676        8        7        8        0     9391     9400     9539     9539    11238    11301     9539    11239
     7677        8        7        8        0     9378     9540     9404     9404    11189    11319     9404    11188
     7678        8        7        8        0     9328     9390     9334     9334    11000    11020     9334    10999
     7679        8        7        8        0     9403     9404     9540     9540    11314    11319     9540    11316
     7680        8        7        8        0     9402     9540     9539     9539    11311    11998     9539    11310
     7681        8        7        8        0     9331     9332     9540     9540    11009    11015     9540    11010
     7682        8        7        8        0     9332     9539     9540     9540    11014    11998     9540    11015
     7683        8        7        8        0     9330     9540     9379     9379    11007    11192     9379    11006
     7684        8        7        8        0     9378     9379     9540     9540    11186    11192     9540    11189
     7685        8        7        8        0     9333     9334     9539     9539    11017    11021     9539    11018
     7686        8        7        8        0     9377     9378     9404     9404    11183    11188     9404    11185
     7687        8        7        8        0     9320     9330     9379     9379    10958    11006     9379    10959
     7688        8        7        8        0     9401     9402     9539     9539    11304    11310     9539    11306
     7689        8        7        8        0     9332     9333     9539     9539    11013    11018     9539    11014
     7690        8        7        8        0     9334     9390     9539     9539    11020    11236     9539    11021
     7691        8        7        8        0     9330     9331     9540     9540    11005    11010     9540    11007
     7692        8        7        8        0     9400     9401     9539     9539    11299    11306     9539    11301
     7693        8        7        8        0     9402     9403     9540     9540    11307    11316     9540    11311
     7694        8        7        8        0     9390     9391     9539     9539    11235    11239     9539    11236
-1
keyo,cid,8,2               ! auto create asymmetric contact (from Program Controlled setting)
keyo,cid,10,0              ! adjust contact stiffness each NR iteration (from Program Controlled setting)
keyo,cid,12,5              ! bonded always
keyo,cid,18,1              ! small sliding turned on by application
keyo,cid,2,0               ! augmented Lagrange (from Program Controlled setting)
keyo,cid,4,0               ! on Gauss point (from Program Controlled setting)
keyo,cid,9,1               ! ignore initial gaps/penetration
keyo,cid,7,0               ! No Prediction
rmod,tid,3,10.      ! FKN
rmod,tid,5,0.       ! ICONT
rmod,tid,6,0.       ! PINB
rmod,tid,10,0.      ! CNOF
rmod,tid,12,0.      ! FKT
rmod,tid,36,38      ! WB DSID
rmod,cid,3,10.      ! FKN
rmod,cid,5,0.       ! ICONT
rmod,cid,6,0.       ! PINB
rmod,cid,10,0.      ! CNOF
rmod,cid,12,0.      ! FKT
rmod,cid,36,38      ! WB DSID
/com,*********** Create Contact "Contact Region 3" ***********
/com,            Real Constant Set For Above Contact Is 10 & 9 
*set,tid,10
*set,cid,9
r,tid
r,cid
et,tid,170
et,cid,174
eblock,10,,,68
(15i9)
     7695       10       10       10        0        8        7       57       57      158      163       57      171
     7696       10       10       10        0        5        4       59       59      127      132       59      143
     7697       10       10       10        0        4        3       61       61      118      123       61      133
     7698       10       10       10        0        7        6       62       62      148      153       62      164
     7699       10       10       10        0        1        8       63       63       98      172       63      105
     7700       10       10       10        0        3        2       67       67      109      114       67      124
     7701       10       10       10        0        6        5       69       69      136      144       69      154
     7702       10       10       10        0        2        1       71       71       97      106       71      115
     7703       10       10       10        0        8       57       63       63      171      354       63      172
     7704       10       10       10        0       57        7       62       62      163      164       62      353
     7705       10       10       10        0       59        4       61       61      132      133       61      365
     7706       10       10       10        0       61        3       67       67      123      124       67      378
     7707       10       10       10        0       62        6       69       69      153      154       69      383
     7708       10       10       10        0       67        2       71       71      114      115       71      406
     7709       10       10       10        0       69        5       59       59      144      143       59      366
     7710       10       10       10        0       71        1       63       63      106      105       63      387
     7711       10       10       10        0       63       57       73       73      354      355       73      388
     7712       10       10       10        0       57       62       74       74      353      384       74      356
     7713       10       10       10        0       59       61       77       77      365      379       77      367
     7714       10       10       10        0       61       67       79       79      378      407       79      380
! ... 49 like lines cut
eblock,10,,,68
(15i9)
     7763        9        9        9        0        8        7       57       57      158      163       57      171
     7764        9        9        9        0        5        4       59       59      127      132       59      143
     7765        9        9        9        0        4        3       61       61      118      123       61      133
     7766        9        9        9        0        7        6       62       62      148      153       62      164
     7767        9        9        9        0        1        8       63       63       98      172       63      105
     7768        9        9        9        0        3        2       67       67      109      114       67      124
     7769        9        9        9        0        6        5       69       69      136      144       69      154
     7770        9        9        9        0        2        1       71       71       97      106       71      115
     7771        9        9        9        0        8       57       63       63      171      354       63      172
     7772        9        9        9        0       57        7       62       62      163      164       62      353
     7773        9        9        9        0       59        4       61       61      132      133       61      365
     7774        9        9        9        0       61        3       67       67      123      124       67      378
     7775        9        9        9        0       62        6       69       69      153      154       69      383
     7776        9        9        9        0       67        2       71       71      114      115       71      406
     7777        9        9        9        0       69        5       59       59      144      143       59      366
     7778        9        9        9        0       71        1       63       63      106      105       63      387
     7779        9        9        9        0       63       57       73       73      354      355       73      388
     7780        9        9        9        0       57       62       74       74      353      384       74      356
     7781        9        9        9        0       59       61       77       77      365      379       77      367
     7782        9        9        9        0       61       67       79       79      378      407       79      380
! ... 49 like lines cut
eblock,10,,,72
(15i9)
     7831        9       10        9        0     6095     6094     6222     6222     7589     7590     6222     7594
     7832        9       10        9        0     6103     6102     6223     6223     7637     7639     6223     7643
     7833        9       10        9        0     6092     6091     6224     6224     7571     7574     6224     7580
     7834        9       10        9        0     6100     6099     6225     6225     7618     7619     6225     7624
     7835        9       10        9        0     6091     6090     6226     6226     7565     7567     6226     7575
     7836        9       10        9        0     6094     6093     6227     6227     7583     7586     6227     7591
     7837        9       10        9        0     6088     6095     6231     6231     7554     7595     6231     7555
     7838        9       10        9        0     6099     6098     6225     6225     7612     7613     6225     7619
     7839        9       10        9        0     6102     6101     6228     6228     7629     7631     6228     7640
     7840        9       10        9        0     6096     6103     6232     6232     7600     7644     6232     7601
     7841        9       10        9        0     6090     6089     6229     6229     7560     7561     6229     7568
     7842        9       10        9        0     6093     6092     6224     6224     7579     7580     6224     7584
     7843        9       10        9        0     6098     6097     6230     6230     7606     7607     6230     7615
     7844        9       10        9        0     6101     6233     6228     6228     7632     8207     6228     7631
     7845        9       10        9        0     6089     6234     6229     6229     7562     8211     6229     7561
     7846        9       10        9        0     6097     6235     6230     6230     7608     8215     6230     7607
     7847        9       10        9        0     6222     6094     6227     6227     7590     7591     6227     8169
     7848        9       10        9        0     6223     6102     6228     6228     7639     7640     6228     8176
     7849        9       10        9        0     6224     6091     6226     6226     7574     7575     6226     8184
     7850        9       10        9        0     6100     6225     6233     6233     7624     8191     6233     7625
! ... 53 like lines cut
eblock,10,,,72
(15i9)
     7903       10        9       10        0     6095     6094     6222     6222     7589     7590     6222     7594
     7904       10        9       10        0     6103     6102     6223     6223     7637     7639     6223     7643
     7905       10        9       10        0     6092     6091     6224     6224     7571     7574     6224     7580
     7906       10        9       10        0     6100     6099     6225     6225     7618     7619     6225     7624
     7907       10        9       10        0     6091     6090     6226     6226     7565     7567     6226     7575
     7908       10        9       10        0     6094     6093     6227     6227     7583     7586     6227     7591
     7909       10        9       10        0     6088     6095     6231     6231     7554     7595     6231     7555
     7910       10        9       10        0     6099     6098     6225     6225     7612     7613     6225     7619
     7911       10        9       10        0     6102     6101     6228     6228     7629     7631     6228     7640
     7912       10        9       10        0     6096     6103     6232     6232     7600     7644     6232     7601
     7913       10        9       10        0     6090     6089     6229     6229     7560     7561     6229     7568
     7914       10        9       10        0     6093     6092     6224     6224     7579     7580     6224     7584
     7915       10        9       10        0     6098     6097     6230     6230     7606     7607     6230     7615
     7916       10        9       10        0     6101     6233     6228     6228     7632     8207     6228     7631
     7917       10        9       10        0     6089     6234     6229     6229     7562     8211     6229     7561
     7918       10        9       10        0     6097     6235     6230     6230     7608     8215     6230     7607
     7919       10        9       10        0     6222     6094     6227     6227     7590     7591     6227     8169
     7920       10        9       10        0     6223     6102     6228     6228     7639     7640     6228     8176
     7921       10        9       10        0     6224     6091     6226     6226     7574     7575     6226     8184
     7922       10        9       10        0     6100     6225     6233     6233     7624     8191     6233     7625
! ... 53 like lines cut
keyo,cid,8,2               ! auto create asymmetric contact (from Program Controlled setting)
keyo,cid,10,0              ! adjust contact stiffness each NR iteration (from Program Controlled setting)
keyo,cid,12,5              ! bonded always
keyo,cid,18,1              ! small sliding turned on by application
keyo,cid,2,0               ! augmented Lagrange (from Program Controlled setting)
keyo,cid,4,0               ! on Gauss point (from Program Controlled setting)
keyo,cid,9,1               ! ignore initial gaps/penetration
keyo,cid,7,0               ! No Prediction
rmod,tid,3,10.      ! FKN
rmod,tid,5,0.       ! ICONT
rmod,tid,6,0.       ! PINB
rmod,tid,10,0.      ! CNOF
rmod,tid,12,0.      ! FKT
rmod,tid,36,41      ! WB DSID
rmod,cid,3,10.      ! FKN
rmod,cid,5,0.       ! ICONT
rmod,cid,6,0.       ! PINB
rmod,cid,10,0.      ! CNOF
rmod,cid,12,0.      ! FKT
rmod,cid,36,41      ! WB DSID
/com,*********** Create Contact "Contact Region 4" ***********
/com,            Real Constant Set For Above Contact Is 12 & 11 
*set,tid,12
*set,cid,11
r,tid
r,cid
et,tid,170
et,cid,174
eblock,10,,,68
(15i9)
     7975       12       12       12        0       16       15       58       58      235      240       58      248
     7976       12       12       12        0       13       12       60       60      205      210       60      222
     7977       12       12       12        0       12       11       64       64      196      201       64      211
     7978       12       12       12        0       15       14       65       65      226      231       65      241
     7979       12       12       12        0        9       16       66       66      176      249       66      183
     7980       12       12       12        0       11       10       68       68      187      192       68      202
     7981       12       12       12        0       14       13       70       70      215      223       70      232
     7982       12       12       12        0       10        9       72       72      175      184       72      193
     7983       12       12       12        0       16       58       66       66      248      360       66      249
     7984       12       12       12        0       58       15       65       65      240      241       65      359
     7985       12       12       12        0       60       12       64       64      210      211       64      371
     7986       12       12       12        0       64       11       68       68      201      202       68      391
     7987       12       12       12        0       65       14       70       70      231      232       70      396
     7988       12       12       12        0       68       10       72       72      192      193       72      411
     7989       12       12       12        0       70       13       60       60      223      222       60      372
     7990       12       12       12        0       72        9       66       66      184      183       66      400
     7991       12       12       12        0       66       58       75       75      360      361       75      401
     7992       12       12       12        0       58       65       76       76      359      397       76      362
     7993       12       12       12        0       60       64       78       78      371      392       78      373
     7994       12       12       12        0       64       68       80       80      391      412       80      393
! ... 49 like lines cut
eblock,10,,,68
(15i9)
     8043       11       11       11        0       16       15       58       58      235      240       58      248
     8044       11       11       11        0       13       12       60       60      205      210       60      222
     8045       11       11       11        0       12       11       64       64      196      201       64      211
     8046       11       11       11        0       15       14       65       65      226      231       65      241
     8047       11       11       11        0        9       16       66       66      176      249       66      183
     8048       11       11       11        0       11       10       68       68      187      192       68      202
     8049       11       11       11        0       14       13       70       70      215      223       70      232
     8050       11       11       11        0       10        9       72       72      175      184       72      193
     8051       11       11       11        0       16       58       66       66      248      360       66      249
     8052       11       11       11        0       58       15       65       65      240      241       65      359
     8053       11       11       11        0       60       12       64       64      210      211       64      371
     8054       11       11       11        0       64       11       68       68      201      202       68      391
     8055       11       11       11        0       65       14       70       70      231      232       70      396
     8056       11       11       11        0       68       10       72       72      192      193       72      411
     8057       11       11       11        0       70       13       60       60      223      222       60      372
     8058       11       11       11        0       72        9       66       66      184      183       66      400
     8059       11       11       11        0       66       58       75       75      360      361       75      401
     8060       11       11       11        0       58       65       76       76      359      397       76      362
     8061       11       11       11        0       60       64       78       78      371      392       78      373
     8062       11       11       11        0       64       68       80       80      391      412       80      393
! ... 49 like lines cut
eblock,10,,,72
(15i9)
     8111       11       12       11        0     9289     9288     9416     9416    10783    10784     9416    10788
     8112       11       12       11        0     9297     9296     9417     9417    10831    10833     9417    10837
     8113       11       12       11        0     9286     9285     9418     9418    10765    10768     9418    10774
     8114       11       12       11        0     9294     9293     9419     9419    10812    10813     9419    10818
     8115       11       12       11        0     9285     9284     9420     9420    10759    10761     9420    10769
     8116       11       12       11        0     9288     9287     9421     9421    10777    10780     9421    10785
     8117       11       12       11        0     9282     9289     9425     9425    10748    10789     9425    10749
     8118       11       12       11        0     9293     9292     9419     9419    10806    10807     9419    10813
     8119       11       12       11        0     9296     9295     9422     9422    10823    10825     9422    10834
     8120       11       12       11        0     9290     9297     9426     9426    10794    10838     9426    10795
     8121       11       12       11        0     9284     9283     9423     9423    10754    10755     9423    10762
     8122       11       12       11        0     9287     9286     9418     9418    10773    10774     9418    10778
     8123       11       12       11        0     9292     9291     9424     9424    10800    10801     9424    10809
     8124       11       12       11        0     9295     9427     9422     9422    10826    11401     9422    10825
     8125       11       12       11        0     9283     9428     9423     9423    10756    11405     9423    10755
     8126       11       12       11        0     9291     9429     9424     9424    10802    11409     9424    10801
     8127       11       12       11        0     9416     9288     9421     9421    10784    10785     9421    11363
     8128       11       12       11        0     9417     9296     9422     9422    10833    10834     9422    11370
     8129       11       12       11        0     9418     9285     9420     9420    10768    10769     9420    11378
     8130       11       12       11        0     9294     9419     9427     9427    10818    11385     9427    10819
! ... 53 like lines cut
eblock,10,,,72
(15i9)
     8183       12       11       12        0     9289     9288     9416     9416    10783    10784     9416    10788
     8184       12       11       12        0     9297     9296     9417     9417    10831    10833     9417    10837
     8185       12       11       12        0     9286     9285     9418     9418    10765    10768     9418    10774
     8186       12       11       12        0     9294     9293     9419     9419    10812    10813     9419    10818
     8187       12       11       12        0     9285     9284     9420     9420    10759    10761     9420    10769
     8188       12       11       12        0     9288     9287     9421     9421    10777    10780     9421    10785
     8189       12       11       12        0     9282     9289     9425     9425    10748    10789     9425    10749
     8190       12       11       12        0     9293     9292     9419     9419    10806    10807     9419    10813
     8191       12       11       12        0     9296     9295     9422     9422    10823    10825     9422    10834
     8192       12       11       12        0     9290     9297     9426     9426    10794    10838     9426    10795
     8193       12       11       12        0     9284     9283     9423     9423    10754    10755     9423    10762
     8194       12       11       12        0     9287     9286     9418     9418    10773    10774     9418    10778
     8195       12       11       12        0     9292     9291     9424     9424    10800    10801     9424    10809
     8196       12       11       12        0     9295     9427     9422     9422    10826    11401     9422    10825
     8197       12       11       12        0     9283     9428     9423     9423    10756    11405     9423    10755
     8198       12       11       12        0     9291     9429     9424     9424    10802    11409     9424    10801
     8199       12       11       12        0     9416     9288     9421     9421    10784    10785     9421    11363
     8200       12       11       12        0     9417     9296     9422     9422    10833    10834     9422    11370
     8201       12       11       12        0     9418     9285     9420     9420    10768    10769     9420    11378
     8202       12       11       12        0     9294     9419     9427     9427    10818    11385     9427    10819
! ... 53 like lines cut
keyo,cid,8,2               ! auto create asymmetric contact (from Program Controlled setting)
keyo,cid,10,0              ! adjust contact stiffness each NR iteration (from Program Controlled setting)
keyo,cid,12,5              ! bonded always
keyo,cid,18,1              ! small sliding turned on by application
keyo,cid,2,0               ! augmented Lagrange (from Program Controlled setting)
keyo,cid,4,0               ! on Gauss point (from Program Controlled setting)
keyo,cid,9,1               ! ignore initial gaps/penetration
keyo,cid,7,0               ! No Prediction
rmod,tid,3,10.      ! FKN
rmod,tid,5,0.       ! ICONT
rmod,tid,6,0.       ! PINB
rmod,tid,10,0.      ! CNOF
rmod,tid,12,0.      ! FKT
rmod,tid,36,44      ! WB DSID
rmod,cid,3,10.      ! FKN
rmod,cid,5,0.       ! ICONT
rmod,cid,6,0.       ! PINB
rmod,cid,10,0.      ! CNOF
rmod,cid,12,0.      ! FKT
rmod,cid,36,44      ! WB DSID
/com,*********** Create Contact "Contact Region 5" ***********
/com,            Real Constant Set For Above Contact Is 14 & 13 
*set,tid,14
*set,cid,13
r,tid
r,cid
et,tid,170
et,cid,174
eblock,10,,,42
(15i9)
     8255       14       14       14        0     5997     6097     6098     6098     7067     7606     6098     7068
     8256       14       14       14        0     6049     6050     6099     6099     7362     7369     6099     7363
     8257       14       14       14        0     6142     6254     6211     6211     7835     8129     6211     7833
     8258       14       14       14        0     6101     6112     6252     6252     7630     7688     6252     7633
     8259       14       14       14        0     6112     6113     6252     6252     7687     7691     6252     7688
     8260       14       14       14        0     6110     6252     6113     6113     7677     7691     6113     7675
     8261       14       14       14        0     5994     6253     5998     5998     7050     7073     5998     7048
     8262       14       14       14        0     5994     6214     6253     6253     7049     8138     6253     7050
     8263       14       14       14        0     6252     6254     6101     6101     8308     7634     6101     7633
     8264       14       14       14        0     5997     6253     6097     6097     7069     7609     6097     7067
     8265       14       14       14        0     6060     6061     6103     6103     7425     7432     6103     7427
     8266       14       14       14        0     6063     6102     6103     6103     7442     7637     6103     7443
     8267       14       14       14        0     5927     6059     6096     6096     6687     7420     6096     6688
     8268       14       14       14        0     6047     6099     6100     6100     7353     7618     6100     7354
     8269       14       14       14        0     6100     6142     6046     6046     7623     7348     6046     7347
     8270       14       14       14        0     6050     6098     6099     6099     7368     7612     6099     7369
     8271       14       14       14        0     5927     6205     5931     5931     6690     6717     5931     6686
     8272       14       14       14        0     5996     6098     6050     6050     7062     7368     6050     7061
     8273       14       14       14        0     6202     6254     6252     6252     8077     8308     6252     8076
     8274       14       14       14        0     6202     6203     6254     6254     8073     8086     6254     8077
! ... 23 like lines cut
eblock,10,,,42
(15i9)
     8297       13       13       13        0     5997     6097     6098     6098     7067     7606     6098     7068
     8298       13       13       13        0     6049     6050     6099     6099     7362     7369     6099     7363
     8299       13       13       13        0     6142     6254     6211     6211     7835     8129     6211     7833
     8300       13       13       13        0     6101     6112     6252     6252     7630     7688     6252     7633
     8301       13       13       13        0     6112     6113     6252     6252     7687     7691     6252     7688
     8302       13       13       13        0     6110     6252     6113     6113     7677     7691     6113     7675
     8303       13       13       13        0     5994     6253     5998     5998     7050     7073     5998     7048
     8304       13       13       13        0     5994     6214     6253     6253     7049     8138     6253     7050
     8305       13       13       13        0     6252     6254     6101     6101     8308     7634     6101     7633
     8306       13       13       13        0     5997     6253     6097     6097     7069     7609     6097     7067
     8307       13       13       13        0     6060     6061     6103     6103     7425     7432     6103     7427
     8308       13       13       13        0     6063     6102     6103     6103     7442     7637     6103     7443
     8309       13       13       13        0     5927     6059     6096     6096     6687     7420     6096     6688
     8310       13       13       13        0     6047     6099     6100     6100     7353     7618     6100     7354
     8311       13       13       13        0     6100     6142     6046     6046     7623     7348     6046     7347
     8312       13       13       13        0     6050     6098     6099     6099     7368     7612     6099     7369
     8313       13       13       13        0     5927     6205     5931     5931     6690     6717     5931     6686
     8314       13       13       13        0     5996     6098     6050     6050     7062     7368     6050     7061
     8315       13       13       13        0     6202     6254     6252     6252     8077     8308     6252     8076
     8316       13       13       13        0     6202     6203     6254     6254     8073     8086     6254     8077
! ... 23 like lines cut
eblock,10,,,42
(15i9)
     8339       13       14       13        0     9191     9291     9292     9292    10261    10800     9292    10262
     8340       13       14       13        0     9243     9244     9293     9293    10556    10563     9293    10557
     8341       13       14       13        0     9336     9448     9405     9405    11029    11323     9405    11027
     8342       13       14       13        0     9295     9306     9446     9446    10824    10882     9446    10827
     8343       13       14       13        0     9306     9307     9446     9446    10881    10885     9446    10882
     8344       13       14       13        0     9304     9446     9307     9307    10871    10885     9307    10869
     8345       13       14       13        0     9188     9447     9192     9192    10244    10267     9192    10242
     8346       13       14       13        0     9188     9408     9447     9447    10243    11332     9447    10244
     8347       13       14       13        0     9446     9448     9295     9295    11502    10828     9295    10827
     8348       13       14       13        0     9191     9447     9291     9291    10263    10803     9291    10261
     8349       13       14       13        0     9254     9255     9297     9297    10619    10626     9297    10621
     8350       13       14       13        0     9257     9296     9297     9297    10636    10831     9297    10637
     8351       13       14       13        0     9121     9253     9290     9290     9881    10614     9290     9882
     8352       13       14       13        0     9241     9293     9294     9294    10547    10812     9294    10548
     8353       13       14       13        0     9294     9336     9240     9240    10817    10542     9240    10541
     8354       13       14       13        0     9244     9292     9293     9293    10562    10806     9293    10563
     8355       13       14       13        0     9121     9399     9125     9125     9884     9911     9125     9880
     8356       13       14       13        0     9190     9292     9244     9244    10256    10562     9244    10255
     8357       13       14       13        0     9396     9448     9446     9446    11271    11502     9446    11270
     8358       13       14       13        0     9396     9397     9448     9448    11267    11280     9448    11271
! ... 23 like lines cut
eblock,10,,,42
(15i9)
     8381       14       13       14        0     9191     9291     9292     9292    10261    10800     9292    10262
     8382       14       13       14        0     9243     9244     9293     9293    10556    10563     9293    10557
     8383       14       13       14        0     9336     9448     9405     9405    11029    11323     9405    11027
     8384       14       13       14        0     9295     9306     9446     9446    10824    10882     9446    10827
     8385       14       13       14        0     9306     9307     9446     9446    10881    10885     9446    10882
     8386       14       13       14        0     9304     9446     9307     9307    10871    10885     9307    10869
     8387       14       13       14        0     9188     9447     9192     9192    10244    10267     9192    10242
     8388       14       13       14        0     9188     9408     9447     9447    10243    11332     9447    10244
     8389       14       13       14        0     9446     9448     9295     9295    11502    10828     9295    10827
     8390       14       13       14        0     9191     9447     9291     9291    10263    10803     9291    10261
     8391       14       13       14        0     9254     9255     9297     9297    10619    10626     9297    10621
     8392       14       13       14        0     9257     9296     9297     9297    10636    10831     9297    10637
     8393       14       13       14        0     9121     9253     9290     9290     9881    10614     9290     9882
     8394       14       13       14        0     9241     9293     9294     9294    10547    10812     9294    10548
     8395       14       13       14        0     9294     9336     9240     9240    10817    10542     9240    10541
     8396       14       13       14        0     9244     9292     9293     9293    10562    10806     9293    10563
     8397       14       13       14        0     9121     9399     9125     9125     9884     9911     9125     9880
     8398       14       13       14        0     9190     9292     9244     9244    10256    10562     9244    10255
     8399       14       13       14        0     9396     9448     9446     9446    11271    11502     9446    11270
     8400       14       13       14        0     9396     9397     9448     9448    11267    11280     9448    11271
! ... 23 like lines cut
keyo,cid,8,2               ! auto create asymmetric contact (from Program Controlled setting)
keyo,cid,10,0              ! adjust contact stiffness each NR iteration (from Program Controlled setting)
keyo,cid,12,5              ! bonded always
keyo,cid,18,1              ! small sliding turned on by application
keyo,cid,2,0               ! augmented Lagrange (from Program Controlled setting)
keyo,cid,4,0               ! on Gauss point (from Program Controlled setting)
keyo,cid,9,1               ! ignore initial gaps/penetration
keyo,cid,7,0               ! No Prediction
rmod,tid,3,10.      ! FKN
rmod,tid,5,0.       ! ICONT
rmod,tid,6,0.       ! PINB
rmod,tid,10,0.      ! CNOF
rmod,tid,12,0.      ! FKT
rmod,tid,36,47      ! WB DSID
rmod,cid,3,10.      ! FKN
rmod,cid,5,0.       ! ICONT
rmod,cid,6,0.       ! PINB
rmod,cid,10,0.      ! CNOF
rmod,cid,12,0.      ! FKT
rmod,cid,36,47      ! WB DSID
nsel,all
esel,all
/wb,contact,end            !  done creating contacts
/golist
/wb,load,start             !  starting to send loads
/com,*********** Fixed Supports ***********
CMBLOCK,_FIXEDSU,NODE,      186
(8i10)
      1748      1749      1750      1751      1752      1753      1754      1755
      1756      1757      1758      1759      1800      1801      1802      1803
      1804      1805      1806      1807      1808      1809      1810      1811
      1812      1813      1814      1815      1816      1817      1818      1819
      1820      1821      1822      1823      1824      1825      1826      1827
      1828      1829      1830      1831      1832      1833      1834      1835
      1916      1917      1918      1919      1920      1921      1922      1923
      1924      1925      1926      1927      1928      1929      1930      1931
      1932      1933      1934      1935      1936      1937      1938      1939
      5451      5452      5453      5454      5455      5456      5457      5458
      5459      5460      5461      5462      5463      5464      5465      5466
      5467      5468      5469      5470      5471      5472      5474      5555
      5556      5557      5558      5559      5560      5561      5562      5563
      5564      5565      5566      5567      5568      5569      5570      5571
      5572      5573      5574      5575      5576      5577      5578      5579
      5580      5581      5582      5583      5584      5585      5586      5587
      5588      5589      5590      5591      5592      5593      5594      5595
      5596      5597      5598      5599      5600      5601      5602      5603
      5604      5605      5606      5607      5608      5609      5610      5613
      5736      5737      5738      5739      5740      5741      5742      5743
! ... 4 like lines cut
cmsel,s,_FIXEDSU
d,all,all
nsel,all
/com,*********** Define Force Using Surface Effect Elements ***********
local,12,0,0.,0.,0.,0.,0.,0.
csys,0
et,15,154
eblock,10,,,56
(15i9)
     8423       15       15       15       12     6358     6362     6357     6357     8880     8875     6357     8873
     8424       15       15       15       12     6077     6358     6357     6357     7510     8873     6357     7509
     8425       15       15       15       12     6077     6357     6078     6078     7509     7513     6078     7508
     8426       15       15       15       12     6074     6084     6161     6161     7496     7539     6161     7498
     8427       15       15       15       12     6155     6156     6360     6360     7880     7885     6360     7881
     8428       15       15       15       12     6150     6165     6160     6160     7863     7898     6160     7862
     8429       15       15       15       12     6078     6357     6079     6079     7513     7517     6079     7512
     8430       15       15       15       12     6076     6358     6077     6077     7504     7510     6077     7502
     8431       15       15       15       12     6081     6356     6082     6082     7526     7530     6082     7525
     8432       15       15       15       12     6163     6359     6164     6164     7917     7923     6164     7914
     8433       15       15       15       12     6162     6359     6163     6163     7910     7917     6163     7907
     8434       15       15       15       12     6359     6361     6365     6365     8886     8898     6365     8888
     8435       15       15       15       12     5964     5966     6075     6075     6903     6914     6075     6905
     8436       15       15       15       12     5965     6151     5970     5970     6909     6941     5970     6907
     8437       15       15       15       12     6360     6357     6362     6362     8874     8875     6362     8892
     8438       15       15       15       12     6358     6366     6362     6362     8881     8900     6362     8880
     8439       15       15       15       12     6154     6155     6360     6360     7876     7881     6360     7877
     8440       15       15       15       12     6360     6361     6363     6363     8891     8897     6363     8893
     8441       15       15       15       12     6356     6361     6359     6359     8868     8886     6359     8867
     8442       15       15       15       12     6356     6363     6361     6361     8869     8897     6361     8868
! ... 37 like lines cut
esel,s,type,,15
keyop,15,2,1                ! Apply load in local coordinate system
keyop,15,7,1                ! Use original area so load is constant in large deformation
esel,all
/com,*********** Define Force Using Surface Effect Elements ***********
local,13,0,0.,0.,0.,0.,0.,0.
csys,0
et,16,154
eblock,10,,,56
(15i9)
     8479       16       16       16       13     9552     9556     9551     9551    12074    12069     9551    12067
     8480       16       16       16       13     9271     9552     9551     9551    10704    12067     9551    10703
     8481       16       16       16       13     9271     9551     9272     9272    10703    10707     9272    10702
     8482       16       16       16       13     9268     9278     9355     9355    10690    10733     9355    10692
     8483       16       16       16       13     9349     9350     9554     9554    11074    11079     9554    11075
     8484       16       16       16       13     9344     9359     9354     9354    11057    11092     9354    11056
     8485       16       16       16       13     9272     9551     9273     9273    10707    10711     9273    10706
     8486       16       16       16       13     9270     9552     9271     9271    10698    10704     9271    10696
     8487       16       16       16       13     9275     9550     9276     9276    10720    10724     9276    10719
     8488       16       16       16       13     9357     9553     9358     9358    11111    11117     9358    11108
     8489       16       16       16       13     9356     9553     9357     9357    11104    11111     9357    11101
     8490       16       16       16       13     9553     9555     9559     9559    12080    12092     9559    12082
     8491       16       16       16       13     9158     9160     9269     9269    10097    10108     9269    10099
     8492       16       16       16       13     9159     9345     9164     9164    10103    10135     9164    10101
     8493       16       16       16       13     9554     9551     9556     9556    12068    12069     9556    12086
     8494       16       16       16       13     9552     9560     9556     9556    12075    12094     9556    12074
     8495       16       16       16       13     9348     9349     9554     9554    11070    11075     9554    11071
     8496       16       16       16       13     9554     9555     9557     9557    12085    12091     9557    12087
     8497       16       16       16       13     9550     9555     9553     9553    12062    12080     9553    12061
     8498       16       16       16       13     9550     9557     9555     9555    12063    12091     9555    12062
! ... 37 like lines cut
esel,s,type,,16
keyop,16,2,1                ! Apply load in local coordinate system
keyop,16,7,1                ! Use original area so load is constant in large deformation
esel,all
/gst,on,on
fini
*get,_numnode,node,0,count
*get,_numelem,elem,0,count
*get, _MAXELEMNUM, elem, 0, NUM, MAX
*get, _MAXNODENUM, node, 0, NUM, MAX
*get, _MAXELEMTYPE, etyp, 0, NUM, MAX
*get, _MAXREALCONST, real, 0, NUM, MAX
/go
/wb,load,end               !  done creating loads
/com,--- Number of total nodes = %_numnode%
/com,--- Number of contact elements = 1032
/com,--- Number of spring elements = 0
/com,--- Number of bearing elements = 0
/com,--- Number of solid elements = 4276
/com,--- Number of condensed parts = 0
/com,--- Number of total elements = %_numelem%
*get,_wallbsol,active,,time,wall
/com,****************************************************************************
/com,*************************    SOLUTION       ********************************
/com,****************************************************************************
/solu
antype,0                   ! static analysis
_thickRatio=  0     ! Ratio of thick parts in the model
eqsl,sparse,,,,,1
cntr,print,1               ! print out contact info and also make no initial contact an error
dmpoption,emat,no             ! Don't combine emat file for DANSYS
dmpoption,esav,no             ! Don't combine esav file for DANSYS
nldiag,cont,iter           ! print out contact info each equilibrium iteration
rescontrol,,none                 ! Do not keep any restart files
/com,****************************************************
/com,******************* SOLVE FOR LS 1 OF 1 ****************
esel,s,type,,15
nsle
sfe,all,1,pres,1,1.83218060012671e-018
sfe,all,2,pres,1,-0.174375348750645
sfe,all,3,pres,1,0.
esel,s,type,,16
nsle
sfe,all,1,pres,1,1.83218060012671e-018
sfe,all,2,pres,1,0.174375348750645
sfe,all,3,pres,1,0.
nsel,all
esel,all
/nopr
/gopr
nsub,1,1,1
time,1.
outres,erase
outres,all,none
outres,nsol,all,
outres,rsol,all
outres,eangl,all
outres,etmp,all
outres,veng,all
outres,strs,all,
outres,epel,all,
outres,eppl,all,
outres,cont,all,
! *********** WB SOLVE COMMAND ***********
! check interactive state
*get,ANSINTER_,active,,int
*if,ANSINTER_,ne,0,then
/eof
*endif
solve
/com *************** Write FE CONNECTORS ********* 
CEWRITE,file,ce,,INTE
/com,****************************************************
/com,*************** FINISHED SOLVE FOR LS 1 *************
*get,_wallasol,active,,time,wall
/nopr
*get,_numnode,node,0,count
*get,_numelem,elem,0,count
*get, _MAXELEMNUM, elem, 0, NUM, MAX
*get, _MAXNODENUM, node, 0, NUM, MAX,,,INTERNAL
*get, _MAXELEMTYPE, etyp, 0, NUM, MAX
*get, _MAXREALCONST, real, 0, NUM, MAX
/gopr
/post1
xmlo,ENCODING,ISO-8859-1
xmlo,parm
/xml,parm,xml
fini
/gopr
*get,_walldone,active,,time,wall
_preptime=(_wallbsol-_wallstrt)*3600
_solvtime=(_wallasol-_wallbsol)*3600
_posttime=(_walldone-_wallasol)*3600
_totaltim=(_walldone-_wallstrt)*3600
*get,_dlbratio,active,0,solu,dlbr
*get,_combtime,active,0,solu,comb
*get,_ssmode,active,0,solu,ssmm
*get,_ndofs,active,0,solu,ndof
*get,_sol_end_time,active,0,set,time
*if,_sol_end_time,eq,1.000000,then
/fclean				!clean distributed files
*endif
/com,--- Total number of nodes = %_numnode%
/com,--- Total number of elements = %_numelem%
/com,--- Element load balance ratio = %_dlbratio%
/com,--- Time to combine distributed files = %_combtime%
/com,--- Sparse memory mode = %_ssmode%
/com,--- Number of DOF = %_ndofs%
/wb,file,end               ! done with WB generated input
