/batch
/config,noeldb,1     ! force off writing results to database
*get,_wallstrt,active,,time,wall
! ANSYS input file written by Workbench version 2022 R1
! File used for geometry attach: C:\Users\Administrator\AppData\Local\Temp\WB_Administrator_8752_2\wbnew_files\dp0\SYS\DM\SYS.agdb
/title,wbnew--Static Structural (A5)
! ****** Begin Custom Load Command Snippet ******
/COM, ACT Extensions:
/COM,     LSDYNA, 2021.1
/COM,     5f463412-bd3e-484b-87e7-cbc0a665e474, wbex
/COM,
! ****** End   Custom Load Command Snippet ******
*DIM,_wb_ProjectScratch_dir,string,248
_wb_ProjectScratch_dir(1) = 'C:\Users\Administrator\AppData\Local\Temp\WB_Administrator_8752_2\_ProjectScratch\Scr75CB\'
*DIM,_wb_SolverFiles_dir,string,248
_wb_SolverFiles_dir(1) = 'C:\Users\Administrator\AppData\Local\Temp\WB_Administrator_8752_2\wbnew_files\dp0\SYS\MECH\'
*DIM,_wb_userfiles_dir,string,248
_wb_userfiles_dir(1) = 'C:\Users\Administrator\AppData\Local\Temp\WB_Administrator_8752_2\wbnew_files\user_files\'
/com,--- Data in consistent NMM units. See Solving Units in the help system for more information.
/units,MPA
/nopr
/wb,file,start              !  signify a WB generated input file
/prep7
! Turn off shape checking because checks already performed inside WB mesher.
! See help system for more information.
SHPP,OFF,,NOWARN
/nolist
etcon,set             ! allow ANSYS to choose best KEYOP's for 180x elements, resets any applicable keyopt to MAPDL defaults
/com,*********** Nodes for the whole assembly ***********
nblock,3,,5258
(1i9,3e20.9e3)
        1     1.140555321E+01     1.041673218E+01     2.857142857E+00
        2     1.140555321E+01     1.041673218E+01     5.714285714E+00
        3     1.140555321E+01     1.041673218E+01     8.571428571E+00
        4     1.140555321E+01     1.041673218E+01     1.142857143E+01
        5     1.140555321E+01     1.041673218E+01     1.428571429E+01
        6     1.140555321E+01     1.041673218E+01     1.714285714E+01
        7     1.618322306E+01     4.652405300E+00     2.857142857E+00
        8     1.618322306E+01     4.652405300E+00     5.714285714E+00
        9     1.618322306E+01     4.652405300E+00     8.571428571E+00
       10     1.618322306E+01     4.652405300E+00     1.142857143E+01
       11     1.618322306E+01     4.652405300E+00     1.428571429E+01
       12     1.618322306E+01     4.652405300E+00     1.714285714E+01
       13     1.398845328E+01     5.201174013E+00     2.857142857E+00
       14     1.398845328E+01     5.201174013E+00     5.714285714E+00
       15     1.398845328E+01     5.201174013E+00     8.571428571E+00
       16     1.398845328E+01     5.201174013E+00     1.142857143E+01
       17     1.398845328E+01     5.201174013E+00     1.428571429E+01
       18     1.398845328E+01     5.201174013E+00     1.714285714E+01
       19     1.607285356E+01     2.535304355E+01     2.857142857E+00
       20     1.607285356E+01     2.535304355E+01     5.714285714E+00
! ... 4761 like lines cut
/wb,elem,start            !  set before creation of elements
/com,*********** Elements for Body 1 "Solid" ***********
et,1,186
keyo,1,2,1          ! set full integration on SOLID186
eblock,19,solid,,882
(19i9)
        1        1        1        1        0        0        0        0       20        0        1       37      127      133       43      610      595      594      609
     1479     1833     1515     1476     3401     3397     3398     3423     1481     1835     1853     1516
        1        1        1        1        0        0        0        0       20        0        2       37       43      133      127       38       44      134      128
     1476     1515     1833     1479     1483     1520     1837     1486     1475     1512     1851     1832
        1        1        1        1        0        0        0        0       20        0        3       38       44      134      128       39       45      135      129
     1483     1520     1837     1486     1489     1524     1840     1492     1482     1517     1854     1836
        1        1        1        1        0        0        0        0       20        0        4       39       45      135      129       40       46      136      130
     1489     1524     1840     1492     1495     1528     1843     1498     1488     1521     1856     1839
        1        1        1        1        0        0        0        0       20        0        5       40       46      136      130       41       47      137      131
     1495     1528     1843     1498     1501     1532     1846     1504     1494     1525     1858     1842
        1        1        1        1        0        0        0        0       20        0        6       41       47      137      131       42       48      138      132
     1501     1532     1846     1504     1506     1535     1848     1509     1500     1529     1860     1845
        1        1        1        1        0        0        0        0       20        0        7       42       48      138      132      623      624      639      638
     1506     1535     1848     1509     3447     3454     3489     3450     1511     1536     1863     1850
        1        1        1        1        0        0        0        0       20        0        8       37      115      121      127      610      597      596      595
     1478     1795     1814     1479     3404     3402     3400     3401     1481     1797     1816     1835
        1        1        1        1        0        0        0        0       20        0        9       37      127      121      115       38      128      122      116
     1479     1814     1795     1478     1486     1818     1799     1485     1475     1832     1813     1794
        1        1        1        1        0        0        0        0       20        0       10       38      128      122      116       39      129      123      117
     1486     1818     1799     1485     1492     1821     1802     1491     1482     1836     1817     1798
! ... 1745 like lines cut
!Material Id = {A164104C-FA0C-4A3B-B449-7D999DA55EEE}
/wb,elem,end               !  done creating elements
/com,*********** Send User Defined Coordinate System(s) ***********
csys,0
toffst,273.15,  ! Temperature offset from absolute zero
/com,*********** Set Reference Temperature ***********
tref,22.
/wb,mat,start              !  starting to send materials
/com,*********** Send Materials ***********
Temperature = 'TEMP' ! Temperature
MP,DENS,1,7.85e-09,	! tonne mm^-3
MP,ALPX,1,1.2e-05,	! C^-1
MP,C,1,434000000,	! mm^2 s^-2 C^-1
MP,KXX,1,60.5,	! tonne mm s^-3 C^-1
MP,RSVX,1,0.00017,	! ohm mm
MP,EX,1,200000,	! tonne s^-2 mm^-1
MP,NUXY,1,0.3,
MP,MURX,1,10000,
MP,UVID,1,823dd459-c53b-4d6f-9c31-d91da447cb43
MP,UMID,1,59002a79-71c2-428e-906b-55d7dbee100e

/wb,mat,end                !  done sending materials
!************************* Model Summary ********************
!Solid,	Structural Steel,	matid,	1
!************************* End Model Summary ********************
! get the diagonal of the bounding box. Needed later for other things
*get,_xmin,node,,mnloc,x
*get,_ymin,node,,mnloc,y
*get,_zmin,node,,mnloc,z
*get,_xmax,node,,mxloc,x
*get,_ymax,node,,mxloc,y
*get,_zmax,node,,mxloc,z
_ASMDIAG=(_xmax-_xmin)*(_xmax-_xmin)+(_ymax-_ymin)*(_ymax-_ymin)+(_zmax-_zmin)*(_zmax-_zmin)
_ASMDIAG=SQRT(_ASMDIAG)
/wb,contact,start          !  starting to send contact
/wb,contact,end            !  done creating contacts
/golist
/wb,load,start             !  starting to send loads
/com,*********** Fixed Supports ***********
CMBLOCK,_FIXEDSU,NODE,      245
(8i10)
       770       771       772       773       774       775       776       777
       778       779       780       781       782       783       784       785
       786       787       788       789       790       791       792       793
       794       795       796       797       798       799       800       801
       802       803       804       805       806       807       808       809
       810       811       812       813       814       815       816       817
       818       819       820       821       822       823       824       825
       826       827       828       829       830       831       832       833
       834       835       836       837       838       839       840       841
       842       843       844       845       846       847       848       849
       850       851       852       853       854       855       856       857
      3772      3773      3774      3775      3776      3777      3778      3779
      3780      3781      3782      3783      3784      3785      3786      3787
      3788      3789      3790      3791      3792      3793      3794      3795
      3796      3797      3798      3799      3800      3801      3802      3803
      3804      3805      3806      3807      3808      3809      3810      3811
      3812      3813      3814      3815      3816      3817      3818      3819
      3820      3821      3822      3823      3824      3825      3826      3827
      3828      3829      3830      3831      3832      3833      3834      3835
      3836      3837      3838      3839      3840      3841      3842      3843
! ... 11 like lines cut
cmsel,s,_FIXEDSU
d,all,all
nsel,all
/com,*********** Define Force Using Surface Effect Elements ***********
local,12,0,0.,0.,0.,0.,0.,0.
csys,0
et,2,154
eblock,10,,,70
(15i9)
     1667        2        2        2       12     1041      977     1039     1040     4167     4166     4280     4281
     1668        2        2        2       12     1042      986      977     1041     4193     4165     4167     4283
     1669        2        2        2       12     1043      995      986     1042     4211     4192     4193     4285
     1670        2        2        2       12     1044     1004      995     1043     4229     4210     4211     4287
     1671        2        2        2       12     1045     1013     1004     1044     4247     4228     4229     4289
     1672        2        2        2       12     1046     1022     1013     1045     4264     4246     4247     4291
     1673        2        2        2       12      743      744     1022     1046     3718     3721     4264     3719
     1674        2        2        2       12      977      978     1038     1039     4164     4170     4279     4166
     1675        2        2        2       12      986      987      978      977     4191     4169     4164     4165
     1676        2        2        2       12      995      996      987      986     4209     4195     4191     4192
     1677        2        2        2       12     1004     1005      996      995     4227     4213     4209     4210
     1678        2        2        2       12     1013     1014     1005     1004     4245     4231     4227     4228
     1679        2        2        2       12     1022     1023     1014     1013     4263     4249     4245     4246
     1680        2        2        2       12      744      745     1023     1022     3720     3723     4263     3721
     1681        2        2        2       12      978      979     1037     1038     4168     4173     4278     4170
     1682        2        2        2       12      987      988      979      978     4194     4172     4168     4169
     1683        2        2        2       12      996      997      988      987     4212     4197     4194     4195
     1684        2        2        2       12     1005     1006      997      996     4230     4215     4212     4213
     1685        2        2        2       12     1014     1015     1006     1005     4248     4233     4230     4231
     1686        2        2        2       12     1023     1024     1015     1014     4265     4251     4248     4249
! ... 51 like lines cut
esel,s,type,,2
keyop,2,2,1                ! Apply load in local coordinate system
keyop,2,7,1                ! Use original area so load is constant in large deformation
esel,all
/gst,on,on
fini
*get,_numnode,node,0,count
*get,_numelem,elem,0,count
*get, _MAXELEMNUM, elem, 0, NUM, MAX
*get, _MAXNODENUM, node, 0, NUM, MAX
*get, _MAXELEMTYPE, etyp, 0, NUM, MAX
*get, _MAXREALCONST, real, 0, NUM, MAX
/go
/wb,load,end               !  done creating loads
/com,--- Number of total nodes = %_numnode%
/com,--- Number of contact elements = 70
/com,--- Number of spring elements = 0
/com,--- Number of bearing elements = 0
/com,--- Number of solid elements = 882
/com,--- Number of condensed parts = 0
/com,--- Number of total elements = %_numelem%
*get,_wallbsol,active,,time,wall
/com,****************************************************************************
/com,*************************    SOLUTION       ********************************
/com,****************************************************************************
/solu
antype,0                   ! static analysis
_thickRatio=  1     ! Ratio of thick parts in the model
eqsl,pcg,1e-8,,,,,,1
cntr,print,1               ! print out contact info and also make no initial contact an error
dmpoption,emat,no             ! Don't combine emat file for DANSYS
dmpoption,esav,no             ! Don't combine esav file for DANSYS
nldiag,cont,iter           ! print out contact info each equilibrium iteration
rescontrol,,none                 ! Do not keep any restart files
/com,****************************************************
/com,******************* SOLVE FOR LS 1 OF 1 ****************
esel,s,type,,2
nsle
sfe,all,1,pres,1,183.333333333347
sfe,all,2,pres,1,0.
sfe,all,3,pres,1,0.
nsel,all
esel,all
/nopr
/gopr
nsub,1,1,1
time,1.
outres,erase
outres,all,none
outres,nsol,all,
outres,rsol,all
outres,eangl,all
outres,etmp,all
outres,veng,all
outres,strs,all,
outres,epel,all,
outres,eppl,all,
outres,cont,all,
! *********** WB SOLVE COMMAND ***********
! check interactive state
*get,ANSINTER_,active,,int
*if,ANSINTER_,ne,0,then
/eof
*endif
solve
/com *************** Write FE CONNECTORS ********* 
CEWRITE,file,ce,,INTE
/com,****************************************************
/com,*************** FINISHED SOLVE FOR LS 1 *************
*get,_wallasol,active,,time,wall
/nopr
*get,_numnode,node,0,count
*get,_numelem,elem,0,count
*get, _MAXELEMNUM, elem, 0, NUM, MAX
*get, _MAXNODENUM, node, 0, NUM, MAX,,,INTERNAL
*get, _MAXELEMTYPE, etyp, 0, NUM, MAX
*get, _MAXREALCONST, real, 0, NUM, MAX
/gopr
*get,_PCGITER,active,,solu,cgiter
/post1
xmlo,ENCODING,ISO-8859-1
xmlo,parm
/xml,parm,xml
fini
/gopr
*get,_walldone,active,,time,wall
_preptime=(_wallbsol-_wallstrt)*3600
_solvtime=(_wallasol-_wallbsol)*3600
_posttime=(_walldone-_wallasol)*3600
_totaltim=(_walldone-_wallstrt)*3600
*get,_dlbratio,active,0,solu,dlbr
*get,_combtime,active,0,solu,comb
*get,_ssmode,active,0,solu,ssmm
*get,_ndofs,active,0,solu,ndof
*get,_sol_end_time,active,0,set,time
*if,_sol_end_time,eq,1.000000,then
/fclean				!clean distributed files
*endif
/com,--- Total number of nodes = %_numnode%
/com,--- Total number of elements = %_numelem%
/com,--- Element load balance ratio = %_dlbratio%
/com,--- Time to combine distributed files = %_combtime%
/com,--- Sparse memory mode = %_ssmode%
/com,--- Number of DOF = %_ndofs%
/wb,file,end               ! done with WB generated input
