/batch
/config,noeldb,1     ! force off writing results to database
*get,_wallstrt,active,,time,wall
! ANSYS input file written by Workbench version 2022 R1
! File used for geometry attach: F:\导师论文\论文\全局10mm.x_t
/title,wbnew--Static Structural (B5)
! ****** Begin Custom Load Command Snippet ******
/COM, ACT Extensions:
/COM,     LSDYNA, 2021.1
/COM,     5f463412-bd3e-484b-87e7-cbc0a665e474, wbex
/COM,
! ****** End   Custom Load Command Snippet ******
*DIM,_wb_ProjectScratch_dir,string,248
_wb_ProjectScratch_dir(1) = 'C:\Users\Administrator\AppData\Local\Temp\WB_Administrator_6820_2\_ProjectScratch\ScrFF52\'
*DIM,_wb_SolverFiles_dir,string,248
_wb_SolverFiles_dir(1) = 'C:\Users\Administrator\AppData\Local\Temp\WB_Administrator_6820_2\wbnew_files\dp0\SYS-1\MECH\'
*DIM,_wb_userfiles_dir,string,248
_wb_userfiles_dir(1) = 'C:\Users\Administrator\AppData\Local\Temp\WB_Administrator_6820_2\wbnew_files\user_files\'
/com,--- Data in consistent NMM units. See Solving Units in the help system for more information.
/units,MPA
/nopr
/wb,file,start              !  signify a WB generated input file
/prep7
! Turn off shape checking because checks already performed inside WB mesher.
! See help system for more information.
SHPP,OFF,,NOWARN
/nolist
etcon,set             ! allow ANSYS to choose best KEYOP's for 180x elements, resets any applicable keyopt to MAPDL defaults
/com,*********** Nodes for the whole assembly ***********
nblock,3,,3239
(1i9,3e20.9e3)
        1     7.500000000E+00     4.716269841E+01     2.500000000E+00
        2     7.500000000E+00     4.716269841E+01     5.000000000E+00
        3     7.500000000E+00     4.716269841E+01     7.500000000E+00
        4     7.500000000E+00     4.432539683E+01     2.500000000E+00
        5     7.500000000E+00     4.432539683E+01     5.000000000E+00
        6     7.500000000E+00     4.432539683E+01     7.500000000E+00
        7     7.500000000E+00     4.148809524E+01     2.500000000E+00
        8     7.500000000E+00     4.148809524E+01     5.000000000E+00
        9     7.500000000E+00     4.148809524E+01     7.500000000E+00
       10     7.500000000E+00     3.865079365E+01     2.500000000E+00
       11     7.500000000E+00     3.865079365E+01     5.000000000E+00
       12     7.500000000E+00     3.865079365E+01     7.500000000E+00
       13     7.500000000E+00     3.581349206E+01     2.500000000E+00
       14     7.500000000E+00     3.581349206E+01     5.000000000E+00
       15     7.500000000E+00     3.581349206E+01     7.500000000E+00
       16     7.500000000E+00     3.297619048E+01     2.500000000E+00
       17     7.500000000E+00     3.297619048E+01     5.000000000E+00
       18     7.500000000E+00     3.297619048E+01     7.500000000E+00
       19     7.500000000E+00     3.013888889E+01     2.500000000E+00
       20     7.500000000E+00     3.013888889E+01     5.000000000E+00
! ... 2926 like lines cut
/wb,elem,start            !  set before creation of elements
/com,*********** Elements for Body 1 "Part 1" ***********
et,1,186
keyo,1,2,1          ! set full integration on SOLID186
eblock,19,solid,,512
(19i9)
        1        1        1        1        0        0        0        0       20        0        1        1      744      739      686      372      751      738      737
      831     2799     2708      830     2077     2797     2795     2076      829     2811     2796     2707
        1        1        1        1        0        0        0        0       20        0        2        1      686      739      744        2      699      740      747
      830     2708     2799      831      835     2746     2801      836      826     2706     2798     2810
        1        1        1        1        0        0        0        0       20        0        3        2      699      740      747        3      712      741      750
      835     2746     2801      836      840     2771     2802      841      832     2745     2800     2817
        1        1        1        1        0        0        0        0       20        0        4        3      712      741      750      373      488      487      486
      840     2771     2802      841     2081     2341     2339     2080      839     2344     2342     2340
        1        1        1        1        0        0        0        0       20        0        5        1       40      743      744      372      359      752      751
      828     1002     2807      831     2050     2051     2821     2077      829     1001     2809     2811
        1        1        1        1        0        0        0        0       20        0        6        1      744      743       40        2      747      746       41
      831     2807     1002      828      836     2815     1006      834      826     2810     2808      998
        1        1        1        1        0        0        0        0       20        0        7        2      747      746       41        3      750      749       42
      836     2815     1006      834      841     2820     1010      838      832     2817     2816     1003
        1        1        1        1        0        0        0        0       20        0        8        3      750      749       42      373      486      485      386
      841     2820     1010      838     2080     2337     2120     2079      839     2340     2338     1009
        1        1        1        1        0        0        0        0       20        0        9       40       79      742      743      359      346      753      752
     1000     1134     2803     1002     2023     2024     2822     2051     1001     1133     2805     2809
        1        1        1        1        0        0        0        0       20        0       10       40      743      742       79       41      746      745       80
     1002     2803     1134     1000     1006     2812     1138     1005      998     2808     2804     1131
! ... 1005 like lines cut
!Material Id = {790CC6F1-FDC1-4A3D-809B-E0DCB861EF1C}
/wb,elem,end               !  done creating elements
/com,*********** Send User Defined Coordinate System(s) ***********
csys,0
toffst,273.15,  ! Temperature offset from absolute zero
/com,*********** Set Reference Temperature ***********
tref,22.
/wb,mat,start              !  starting to send materials
/com,*********** Send Materials ***********
Temperature = 'TEMP' ! Temperature
MP,DENS,1,7.85e-09,	! tonne mm^-3
MP,ALPX,1,1.2e-05,	! C^-1
MP,C,1,434000000,	! mm^2 s^-2 C^-1
MP,KXX,1,60.5,	! tonne mm s^-3 C^-1
MP,RSVX,1,0.00017,	! ohm mm
MP,EX,1,200000,	! tonne s^-2 mm^-1
MP,NUXY,1,0.3,
MP,MURX,1,10000,
MP,UVID,1,7417d8c2-ba5c-4141-84a1-2d6b3a1fefe3
MP,UMID,1,59002a79-71c2-428e-906b-55d7dbee100e

/wb,mat,end                !  done sending materials
!************************* Model Summary ********************
!Part 1,	Structural Steel,	matid,	1
!************************* End Model Summary ********************
! get the diagonal of the bounding box. Needed later for other things
*get,_xmin,node,,mnloc,x
*get,_ymin,node,,mnloc,y
*get,_zmin,node,,mnloc,z
*get,_xmax,node,,mxloc,x
*get,_ymax,node,,mxloc,y
*get,_zmax,node,,mxloc,z
_ASMDIAG=(_xmax-_xmin)*(_xmax-_xmin)+(_ymax-_ymin)*(_ymax-_ymin)+(_zmax-_zmin)*(_zmax-_zmin)
_ASMDIAG=SQRT(_ASMDIAG)
/wb,contact,start          !  starting to send contact
/wb,contact,end            !  done creating contacts
/golist
/wb,load,start             !  starting to send loads
/com,*********** Fixed Supports ***********
CMBLOCK,_FIXEDSU,NODE,       65
(8i10)
       483       484       485       486       487       738       739       740
       741       742       743       744       745       746       747       748
       749       750       751       752       753       754       755       756
       757      2333      2334      2335      2336      2337      2338      2339
      2340      2342      2796      2797      2798      2799      2800      2801
      2802      2803      2804      2805      2806      2807      2808      2809
      2810      2811      2812      2813      2814      2815      2816      2817
      2818      2819      2820      2821      2822      2823      2824      2826
      2828
cmsel,s,_FIXEDSU
d,all,all
nsel,all
/com,*********** Define Force Using Surface Effect Elements ***********
local,12,0,0.,0.,0.,0.,0.,0.
csys,0
et,2,154
eblock,10,,,16
(15i9)
     1057        2        2        2       12      623      614      611      610     2581     2575     2572     2573
     1058        2        2        2       12      624      617      614      623     2587     2580     2581     2597
     1059        2        2        2       12      625      620      617      624     2592     2586     2587     2598
     1060        2        2        2       12      626      627      620      625     2600     2593     2592     2599
     1061        2        2        2       12      614      615      612      611     2579     2577     2574     2575
     1062        2        2        2       12      617      618      615      614     2585     2583     2579     2580
     1063        2        2        2       12      620      621      618      617     2591     2589     2585     2586
     1064        2        2        2       12      627      628      621      620     2602     2595     2591     2593
     1065        2        2        2       12      615      616      613      612     2582     2578     2576     2577
     1066        2        2        2       12      618      619      616      615     2588     2584     2582     2583
     1067        2        2        2       12      621      622      619      618     2594     2590     2588     2589
     1068        2        2        2       12      628      629      622      621     2604     2596     2594     2595
     1069        2        2        2       12      616      518      519      613     2404     2403     2406     2578
     1070        2        2        2       12      619      517      518      616     2402     2401     2404     2584
     1071        2        2        2       12      622      516      517      619     2400     2399     2402     2590
     1072        2        2        2       12      629      515      516      622     2398     2397     2400     2596
-1
esel,s,type,,2
keyop,2,2,1                ! Apply load in local coordinate system
keyop,2,7,1                ! Use original area so load is constant in large deformation
esel,all
/gst,on,on
fini
*get,_numnode,node,0,count
*get,_numelem,elem,0,count
*get, _MAXELEMNUM, elem, 0, NUM, MAX
*get, _MAXNODENUM, node, 0, NUM, MAX
*get, _MAXELEMTYPE, etyp, 0, NUM, MAX
*get, _MAXREALCONST, real, 0, NUM, MAX
/go
/wb,load,end               !  done creating loads
/com,--- Number of total nodes = %_numnode%
/com,--- Number of contact elements = 16
/com,--- Number of spring elements = 0
/com,--- Number of bearing elements = 0
/com,--- Number of solid elements = 512
/com,--- Number of condensed parts = 0
/com,--- Number of total elements = %_numelem%
*get,_wallbsol,active,,time,wall
/com,****************************************************************************
/com,*************************    SOLUTION       ********************************
/com,****************************************************************************
/solu
antype,0                   ! static analysis
_thickRatio=  1     ! Ratio of thick parts in the model
eqsl,pcg,1e-8,,,,,,1
cntr,print,1               ! print out contact info and also make no initial contact an error
dmpoption,emat,no             ! Don't combine emat file for DANSYS
dmpoption,esav,no             ! Don't combine esav file for DANSYS
nldiag,cont,iter           ! print out contact info each equilibrium iteration
rescontrol,,none                 ! Do not keep any restart files
/com,****************************************************
/com,******************* SOLVE FOR LS 1 OF 1 ****************
esel,s,type,,2
nsle
sfe,all,1,pres,1,0.
sfe,all,2,pres,1,-9.00000000000068
sfe,all,3,pres,1,0.
nsel,all
esel,all
/nopr
/gopr
nsub,1,1,1
time,1.
outres,erase
outres,all,none
outres,nsol,all,
outres,rsol,all
outres,eangl,all
outres,etmp,all
outres,veng,all
outres,strs,all,
outres,epel,all,
outres,eppl,all,
outres,cont,all,
! *********** WB SOLVE COMMAND ***********
! check interactive state
*get,ANSINTER_,active,,int
*if,ANSINTER_,ne,0,then
/eof
*endif
solve
/com *************** Write FE CONNECTORS ********* 
CEWRITE,file,ce,,INTE
/com,****************************************************
/com,*************** FINISHED SOLVE FOR LS 1 *************
*get,_wallasol,active,,time,wall
/nopr
*get,_numnode,node,0,count
*get,_numelem,elem,0,count
*get, _MAXELEMNUM, elem, 0, NUM, MAX
*get, _MAXNODENUM, node, 0, NUM, MAX,,,INTERNAL
*get, _MAXELEMTYPE, etyp, 0, NUM, MAX
*get, _MAXREALCONST, real, 0, NUM, MAX
/gopr
*get,_PCGITER,active,,solu,cgiter
/post1
xmlo,ENCODING,ISO-8859-1
xmlo,parm
/xml,parm,xml
fini
/gopr
*get,_walldone,active,,time,wall
_preptime=(_wallbsol-_wallstrt)*3600
_solvtime=(_wallasol-_wallbsol)*3600
_posttime=(_walldone-_wallasol)*3600
_totaltim=(_walldone-_wallstrt)*3600
*get,_dlbratio,active,0,solu,dlbr
*get,_combtime,active,0,solu,comb
*get,_ssmode,active,0,solu,ssmm
*get,_ndofs,active,0,solu,ndof
*get,_sol_end_time,active,0,set,time
*if,_sol_end_time,eq,1.000000,then
/fclean				!clean distributed files
*endif
/com,--- Total number of nodes = %_numnode%
/com,--- Total number of elements = %_numelem%
/com,--- Element load balance ratio = %_dlbratio%
/com,--- Time to combine distributed files = %_combtime%
/com,--- Sparse memory mode = %_ssmode%
/com,--- Number of DOF = %_ndofs%
/wb,file,end               ! done with WB generated input
