/batch
/config,noeldb,1     ! force off writing results to database
*get,_wallstrt,active,,time,wall
! ANSYS input file written by Workbench version 2022 R1
! File used for geometry attach: E:\ANSYS学习素材\第八课\几何模型\带孔矩形板.x_t
/title,wbnew--Static Structural (A5)
! ****** Begin Custom Load Command Snippet ******
/COM, ACT Extensions:
/COM,     LSDYNA, 2021.1
/COM,     5f463412-bd3e-484b-87e7-cbc0a665e474, wbex
/COM,
! ****** End   Custom Load Command Snippet ******
*DIM,_wb_ProjectScratch_dir,string,248
_wb_ProjectScratch_dir(1) = 'C:\Users\Administrator\AppData\Local\Temp\WB_Administrator_3028_2\_ProjectScratch\Scr54E2\'
*DIM,_wb_SolverFiles_dir,string,248
_wb_SolverFiles_dir(1) = 'C:\Users\Administrator\AppData\Local\Temp\WB_Administrator_3028_2\wbnew_files\dp0\SYS\MECH\'
*DIM,_wb_userfiles_dir,string,248
_wb_userfiles_dir(1) = 'C:\Users\Administrator\AppData\Local\Temp\WB_Administrator_3028_2\wbnew_files\user_files\'
/com,--- Data in consistent NMM units. See Solving Units in the help system for more information.
/units,MPA
/nopr
/wb,file,start              !  signify a WB generated input file
/prep7
! Turn off shape checking because checks already performed inside WB mesher.
! See help system for more information.
SHPP,OFF,,NOWARN
/nolist
etcon,set             ! allow ANSYS to choose best KEYOP's for 180x elements, resets any applicable keyopt to MAPDL defaults
/com,*********** Nodes for the whole assembly ***********
nblock,3,,13460
(1i9,3e20.9e3)
        1     3.092473844E+01     1.030800615E+01     3.333333333E+00
        2     3.092473844E+01     1.030800615E+01     6.666666667E+00
        3     2.741733062E+01    -1.619504002E-01     3.333333333E+00
        4     2.741733062E+01    -1.619504002E-01     6.666666667E+00
        5    -2.273519426E+01    -1.232533075E+01     3.333333333E+00
        6    -2.273519426E+01    -1.232533075E+01     6.666666667E+00
        7     1.644800946E+01     2.167856082E+01     3.333333333E+00
        8     1.644800946E+01     2.167856082E+01     6.666666667E+00
        9    -2.996975371E+01     5.008220502E-01     3.333333333E+00
       10    -2.996975371E+01     5.008220502E-01     6.666666667E+00
       11    -4.500000000E+01    -1.387778781E-14     3.333333333E+00
       12    -4.500000000E+01    -1.387778781E-14     6.666666667E+00
       13     3.582925907E+01    -2.311751804E-01     3.333333333E+00
       14     3.582925907E+01    -2.311751804E-01     6.666666667E+00
       15     4.507327257E+01     7.776294448E-03     3.333333333E+00
       16     4.507327257E+01     7.776294448E-03     6.666666667E+00
       17     5.000000000E+01    -2.775557562E-14     3.333333333E+00
       18     5.000000000E+01    -2.775557562E-14     6.666666667E+00
       19     3.168325267E+01    -1.923511801E-01     3.333333333E+00
       20     3.168325267E+01    -1.923511801E-01     6.666666667E+00
! ... 12218 like lines cut
/wb,elem,start            !  set before creation of elements
/com,*********** Elements for Body 1 "Part 1" ***********
et,1,186
keyo,1,2,1          ! set full integration on SOLID186
eblock,19,solid,,2289
(19i9)
        1        1        1        1        0        0        0        0       20        0        1        1       21      139      141     2067     2057     1998     1997
     3342     3442     3905     3344     9760     9666     9664     9665     3346     3444     3907     3914
        1        1        1        1        0        0        0        0       20        0        2        1      141      139       21        2      142      140       22
     3344     3905     3442     3342     3349     3908     3445     3347     3341     3911     3904     3441
        1        1        1        1        0        0        0        0       20        0        3        2      142      140       22     2068     2138     2137     2078
     3349     3908     3445     3347     9766     9942     9799     9764     3351     3917     3910     3447
        1        1        1        1        0        0        0        0       20        0        4        1      141      205      171     2067     1997     1965     1982
     3344     3912     4027     3345     9665     9614     9613     9640     3346     3914     4164     4029
        1        1        1        1        0        0        0        0       20        0        5        1      171      205      141        2      172      206      142
     3345     4027     3912     3344     3350     4030     3915     3349     3341     4026     4161     3911
        1        1        1        1        0        0        0        0       20        0        6        2      172      206      142     2068     2153     2170     2138
     3350     4030     3915     3349     9767     9979     9944     9766     3351     4032     4167     3917
        1        1        1        1        0        0        0        0       20        0        7        1      171      167       73     2067     1982     1984     2031
     3345     4009     3657     3343     9640     9639     9642     9724     3346     4029     4012     3659
        1        1        1        1        0        0        0        0       20        0        8        1       73      167      171        2       74      168      172
     3343     3657     4009     3345     3348     3661     4013     3350     3341     3655     4008     4026
        1        1        1        1        0        0        0        0       20        0        9        2       74      168      172     2068     2104     2151     2153
     3348     3661     4013     3350     9765     9868     9973     9767     3351     3663     4016     4032
        1        1        1        1        0        0        0        0       20        0       10        1       73     1369       21     2067     2031     1383     2057
     3343     3658     3443     3342     9724     8327     8329     9760     3346     3659     8298     3444
! ... 4559 like lines cut
!Material Id = {ABA19237-DDDF-4E72-895C-27E8D2855AD5}
/wb,elem,end               !  done creating elements
/com,*********** Send User Defined Coordinate System(s) ***********
csys,0
toffst,273.15,  ! Temperature offset from absolute zero
/com,*********** Set Reference Temperature ***********
tref,22.
/wb,mat,start              !  starting to send materials
/com,*********** Send Materials ***********
Temperature = 'TEMP' ! Temperature
MP,DENS,1,7.85e-09,	! tonne mm^-3
MP,ALPX,1,1.2e-05,	! C^-1
MP,C,1,434000000,	! mm^2 s^-2 C^-1
MP,KXX,1,60.5,	! tonne mm s^-3 C^-1
MP,RSVX,1,0.00017,	! ohm mm
MP,EX,1,200000,	! tonne s^-2 mm^-1
MP,NUXY,1,0.3,
MP,MURX,1,10000,
MP,UVID,1,c40a3074-e1e3-48f0-9aff-a6b431c3ad6f
MP,UMID,1,59002a79-71c2-428e-906b-55d7dbee100e

/wb,mat,end                !  done sending materials
!************************* Model Summary ********************
!Part 1,	Structural Steel,	matid,	1
!************************* End Model Summary ********************
! get the diagonal of the bounding box. Needed later for other things
*get,_xmin,node,,mnloc,x
*get,_ymin,node,,mnloc,y
*get,_zmin,node,,mnloc,z
*get,_xmax,node,,mxloc,x
*get,_ymax,node,,mxloc,y
*get,_zmax,node,,mxloc,z
_ASMDIAG=(_xmax-_xmin)*(_xmax-_xmin)+(_ymax-_ymin)*(_ymax-_ymin)+(_zmax-_zmin)*(_zmax-_zmin)
_ASMDIAG=SQRT(_ASMDIAG)
/wb,contact,start          !  starting to send contact
/wb,contact,end            !  done creating contacts
/golist
/wb,load,start             !  starting to send loads
/com,*********** Define Force Using Surface Effect Elements ***********
local,12,0,0.,0.,0.,0.,0.,0.
csys,0
et,2,154
eblock,10,,,60
(15i9)
     4254        2        2        2       12     3205     3206     2801     2802    12015    11306    11305    11308
     4255        2        2        2       12     3204     3225     3206     3205    12014    12017    12015    12013
     4256        2        2        2       12     3203     3244     3225     3204    12012    12054    12014    12011
     4257        2        2        2       12     3206     3207     2800     2801    12016    11304    11303    11306
     4258        2        2        2       12     3225     3226     3207     3206    12053    12019    12016    12017
     4259        2        2        2       12     3244     3245     3226     3225    12090    12056    12053    12054
     4260        2        2        2       12     3207     3208     2799     2800    12018    11302    11301    11304
     4261        2        2        2       12     3226     3227     3208     3207    12055    12021    12018    12019
     4262        2        2        2       12     3245     3246     3227     3226    12091    12058    12055    12056
     4263        2        2        2       12     3208     3209     2798     2799    12020    11300    11299    11302
     4264        2        2        2       12     3227     3228     3209     3208    12057    12023    12020    12021
     4265        2        2        2       12     3246     3247     3228     3227    12092    12060    12057    12058
     4266        2        2        2       12     3209     3210     2797     2798    12022    11298    11297    11300
     4267        2        2        2       12     3228     3229     3210     3209    12059    12025    12022    12023
     4268        2        2        2       12     3247     3248     3229     3228    12093    12062    12059    12060
     4269        2        2        2       12     3210     3211     2796     2797    12024    11296    11295    11298
     4270        2        2        2       12     3229     3230     3211     3210    12061    12027    12024    12025
     4271        2        2        2       12     3248     3249     3230     3229    12094    12064    12061    12062
     4272        2        2        2       12     3211     3212     2795     2796    12026    11294    11293    11296
     4273        2        2        2       12     3230     3231     3212     3211    12063    12029    12026    12027
! ... 41 like lines cut
esel,s,type,,2
keyop,2,2,1                ! Apply load in local coordinate system
keyop,2,7,1                ! Use original area so load is constant in large deformation
esel,all
/com,*********** Define Force Using Surface Effect Elements ***********
local,13,0,0.,0.,0.,0.,0.,0.
csys,0
et,3,154
eblock,10,,,60
(15i9)
     4314        3        3        3       13     3084     3026     3082     3083    11719    11718    11810    11811
     4315        3        3        3       13     3085     3045     3026     3084    11774    11717    11719    11813
     4316        3        3        3       13     2842     2843     3045     3085    11387    11390    11774    11388
     4317        3        3        3       13     3026     3027     3081     3082    11716    11722    11809    11718
     4318        3        3        3       13     3045     3046     3027     3026    11773    11721    11716    11717
     4319        3        3        3       13     2843     2844     3046     3045    11389    11392    11773    11390
     4320        3        3        3       13     3027     3028     3080     3081    11720    11725    11808    11722
     4321        3        3        3       13     3046     3047     3028     3027    11775    11724    11720    11721
     4322        3        3        3       13     2844     2845     3047     3046    11391    11394    11775    11392
     4323        3        3        3       13     3028     3029     3079     3080    11723    11728    11807    11725
     4324        3        3        3       13     3047     3048     3029     3028    11776    11727    11723    11724
     4325        3        3        3       13     2845     2846     3048     3047    11393    11396    11776    11394
     4326        3        3        3       13     3029     3030     3078     3079    11726    11731    11806    11728
     4327        3        3        3       13     3048     3049     3030     3029    11777    11730    11726    11727
     4328        3        3        3       13     2846     2847     3049     3048    11395    11398    11777    11396
     4329        3        3        3       13     3030     3031     3077     3078    11729    11734    11805    11731
     4330        3        3        3       13     3049     3050     3031     3030    11778    11733    11729    11730
     4331        3        3        3       13     2847     2848     3050     3049    11397    11400    11778    11398
     4332        3        3        3       13     3031     3032     3076     3077    11732    11737    11804    11734
     4333        3        3        3       13     3050     3051     3032     3031    11779    11736    11732    11733
! ... 41 like lines cut
esel,s,type,,3
keyop,3,2,1                ! Apply load in local coordinate system
keyop,3,7,1                ! Use original area so load is constant in large deformation
esel,all
et,4,14             ! spring element type
/com,*********** Construct Weak Springs, Prototype 1 ***********
*set,_delta,11.1915148087341
type,4
mat,5
real,5
r,5,8.68488299447654e-004
nsel,all
*get,_nspr,ndmx
_nspr=_nspr+1
esel,s,type,,1
nsle,s,active
*get,_minx,node,0,mnloc,x
*get,_miny,node,0,mnloc,y
*get,_minz,node,0,mnloc,z
*get,_maxx,node,0,mxloc,x
*get,_maxy,node,0,mxloc,y
*get,_maxz,node,0,mxloc,z
*dim,_ntets,arra,8
_ntets(1) = NODE(_minx,_miny,_minz)
_ntets(2) = NODE(_minx,_miny,_maxz)
_ntets(3) = NODE(_minx,_maxy,_minz)
_ntets(4) = NODE(_minx,_maxy,_maxz)
_ntets(5) = NODE(_maxx,_miny,_minz)
_ntets(6) = NODE(_maxx,_miny,_maxz)
_ntets(7) = NODE(_maxx,_maxy,_minz)
_ntets(8) = NODE(_maxx,_maxy,_maxz)
*do,_i,1,8
  n,_nspr,nx(_ntets(_i))+_delta,ny(_ntets(_i)),nz(_ntets(_i))
  e,_ntets(_i),_nspr
  d,_nspr,all
  _nspr=_nspr+1
  n,_nspr,nx(_ntets(_i)),ny(_ntets(_i))+_delta,nz(_ntets(_i))
  e,_ntets(_i),_nspr
  d,_nspr,all
  _nspr=_nspr+1
  n,_nspr,nx(_ntets(_i)),ny(_ntets(_i)),nz(_ntets(_i))+_delta
  e,_ntets(_i),_nspr
  d,_nspr,all
  _nspr=_nspr+1
*enddo
*set,_ntets
nsel,all
esel,all
/gst,on,on
fini
*get,_numnode,node,0,count
*get,_numelem,elem,0,count
*get, _MAXELEMNUM, elem, 0, NUM, MAX
*get, _MAXNODENUM, node, 0, NUM, MAX
*get, _MAXELEMTYPE, etyp, 0, NUM, MAX
*get, _MAXREALCONST, real, 0, NUM, MAX
/go
/wb,load,end               !  done creating loads
/com,--- Number of total nodes = %_numnode%
/com,--- Number of contact elements = 120
/com,--- Number of spring elements = 24
/com,--- Number of bearing elements = 0
/com,--- Number of solid elements = 2289
/com,--- Number of condensed parts = 0
/com,--- Number of total elements = %_numelem%
*get,_wallbsol,active,,time,wall
/com,****************************************************************************
/com,*************************    SOLUTION       ********************************
/com,****************************************************************************
/solu
antype,0                   ! static analysis
_thickRatio=  1     ! Ratio of thick parts in the model
eqsl,pcg,1e-8,,,,,,1
cntr,print,1               ! print out contact info and also make no initial contact an error
dmpoption,emat,no             ! Don't combine emat file for DANSYS
dmpoption,esav,no             ! Don't combine esav file for DANSYS
nldiag,cont,iter           ! print out contact info each equilibrium iteration
rescontrol,,none                 ! Do not keep any restart files
/com,****************************************************
/com,******************* SOLVE FOR LS 1 OF 1 ****************
esel,s,type,,2
nsle
sfe,all,1,pres,1,-10.0000000000007
sfe,all,2,pres,1,0.
sfe,all,3,pres,1,0.
esel,s,type,,3
nsle
sfe,all,1,pres,1,10.0000000000007
sfe,all,2,pres,1,0.
sfe,all,3,pres,1,0.
nsel,all
esel,all
/nopr
/gopr
nsub,1,1,1
time,1.
outres,erase
outres,all,none
outres,nsol,all,
outres,rsol,all
outres,eangl,all
outres,etmp,all
outres,veng,all
outres,strs,all,
outres,epel,all,
outres,eppl,all,
outres,cont,all,
! *********** WB SOLVE COMMAND ***********
! check interactive state
*get,ANSINTER_,active,,int
*if,ANSINTER_,ne,0,then
/eof
*endif
solve
/com *************** Write FE CONNECTORS ********* 
CEWRITE,file,ce,,INTE
/com,****************************************************
/com,*************** FINISHED SOLVE FOR LS 1 *************
*get,_wallasol,active,,time,wall
/nopr
*get,_numnode,node,0,count
*get,_numelem,elem,0,count
*get, _MAXELEMNUM, elem, 0, NUM, MAX
*get, _MAXNODENUM, node, 0, NUM, MAX,,,INTERNAL
*get, _MAXELEMTYPE, etyp, 0, NUM, MAX
*get, _MAXREALCONST, real, 0, NUM, MAX
/gopr
*get,_PCGITER,active,,solu,cgiter
/post1
xmlo,ENCODING,ISO-8859-1
xmlo,parm
/xml,parm,xml
fini
/gopr
*get,_walldone,active,,time,wall
_preptime=(_wallbsol-_wallstrt)*3600
_solvtime=(_wallasol-_wallbsol)*3600
_posttime=(_walldone-_wallasol)*3600
_totaltim=(_walldone-_wallstrt)*3600
*get,_dlbratio,active,0,solu,dlbr
*get,_combtime,active,0,solu,comb
*get,_ssmode,active,0,solu,ssmm
*get,_ndofs,active,0,solu,ndof
*get,_sol_end_time,active,0,set,time
*if,_sol_end_time,eq,1.000000,then
/fclean				!clean distributed files
*endif
/com,--- Total number of nodes = %_numnode%
/com,--- Total number of elements = %_numelem%
/com,--- Element load balance ratio = %_dlbratio%
/com,--- Time to combine distributed files = %_combtime%
/com,--- Sparse memory mode = %_ssmode%
/com,--- Number of DOF = %_ndofs%
/wb,file,end               ! done with WB generated input
