/batch
/config,noeldb,1     ! force off writing results to database
*get,_wallstrt,active,,time,wall
! ANSYS input file written by Workbench version 2022 R1
! File used for geometry attach: E:\ANSYS学习素材\第六课\几何模型\支架.x_t
/title,wbnew--Static Structural (A5)
! ****** Begin Custom Load Command Snippet ******
/COM, ACT Extensions:
/COM,     LSDYNA, 2021.1
/COM,     5f463412-bd3e-484b-87e7-cbc0a665e474, wbex
/COM,
! ****** End   Custom Load Command Snippet ******
*DIM,_wb_ProjectScratch_dir,string,248
_wb_ProjectScratch_dir(1) = 'C:\Users\Administrator\AppData\Local\Temp\WB_Administrator_3236_2\_ProjectScratch\ScrDF27\'
*DIM,_wb_SolverFiles_dir,string,248
_wb_SolverFiles_dir(1) = 'C:\Users\Administrator\AppData\Local\Temp\WB_Administrator_3236_2\wbnew_files\dp0\SYS\MECH\'
*DIM,_wb_userfiles_dir,string,248
_wb_userfiles_dir(1) = 'C:\Users\Administrator\AppData\Local\Temp\WB_Administrator_3236_2\wbnew_files\user_files\'
/com,--- Data in consistent NMM units. See Solving Units in the help system for more information.
/units,MPA
/nopr
/wb,file,start              !  signify a WB generated input file
/prep7
! Turn off shape checking because checks already performed inside WB mesher.
! See help system for more information.
SHPP,OFF,,NOWARN
/nolist
etcon,set             ! allow ANSYS to choose best KEYOP's for 180x elements, resets any applicable keyopt to MAPDL defaults
/com,*********** Nodes for the whole assembly ***********
nblock,3,,15254
(1i9,3e20.9e3)
        1     1.270000000E+01     0.000000000E+00    -2.890000000E+01
        2     9.371302193E+00     0.000000000E+00    -2.648155948E+01
        3     1.064275162E+01     0.000000000E+00    -2.256844052E+01
        4     1.475724838E+01     0.000000000E+00    -2.256844052E+01
        5     1.602869781E+01     0.000000000E+00    -2.648155948E+01
        6     1.064275162E+01     0.000000000E+00    -2.823155948E+01
        7     9.371302193E+00     0.000000000E+00    -2.431844052E+01
        8     1.270000000E+01     0.000000000E+00    -2.190000000E+01
        9     1.602869781E+01     0.000000000E+00    -2.431844052E+01
       10     1.475724838E+01     0.000000000E+00    -2.823155948E+01
       11     0.000000000E+00     0.000000000E+00    -3.175000000E+01
       12     0.000000000E+00     0.000000000E+00    -6.350000000E+00
       13     0.000000000E+00     0.000000000E+00    -2.751666667E+01
       14     0.000000000E+00     0.000000000E+00    -2.328333333E+01
       15     0.000000000E+00     0.000000000E+00    -1.905000000E+01
       16     0.000000000E+00     0.000000000E+00    -1.481666667E+01
       17     0.000000000E+00     0.000000000E+00    -1.058333333E+01
       18     6.350000000E+00     0.000000000E+00    -3.810000000E+01
       19     1.859871939E+00     0.000000000E+00    -3.624012806E+01
       20     3.175000000E+01     0.000000000E+00    -3.810000000E+01
! ... 13849 like lines cut
/wb,elem,start            !  set before creation of elements
/com,*********** Elements for Body 1 "Part" ***********
et,1,187
eblock,19,solid,,8015
(19i9)
        1        1        1        1        0        0        0        0       10        0        1     1343     1591     2173     1786     9990    11543     9995     9991
    11539    12704
        1        1        1        1        0        0        0        0       10        0        2     1304     2173     1343     1591     9716     9995     9712     9714
    11543     9990
        1        1        1        1        0        0        0        0       10        0        3      483     2173     1314     2163     5376     9799     5366     5375
    13868     9798
        1        1        1        1        0        0        0        0       10        0        4     1313     2173     1344     1775     9793    10000     9788     9789
    12636     9998
        1        1        1        1        0        0        0        0       10        0        5     1313     1314     1344     2173     9786     9795     9788     9793
     9799    10000
        1        1        1        1        0        0        0        0       10        0        6      483     1489     2173     2163     5369    10755     5376     5375
    10754    13868
        1        1        1        1        0        0        0        0       10        0        7      483     2173     1489     1775     5376    10755     5369     5371
    12636    10750
        1        1        1        1        0        0        0        0       10        0        8     1775     2173     1840     1861    12636    12965    12633    12634
    13044    12959
        1        1        1        1        0        0        0        0       10        0        9     1489     1775     2173     1840    10750    12636    10755    10752
    12633    12965
        1        1        1        1        0        0        0        0       10        0       10     1304     1314     2173     2163     9710     9799     9716     9715
     9798    13868
! ... 16011 like lines cut
!Material Id = {EA875F83-213C-445E-8222-594DB64815CC}
/wb,elem,end               !  done creating elements
/com,*********** Send User Defined Coordinate System(s) ***********
csys,0
toffst,273.15,  ! Temperature offset from absolute zero
/com,*********** Set Reference Temperature ***********
tref,22.
/wb,mat,start              !  starting to send materials
/com,*********** Send Materials ***********
Temperature = 'TEMP' ! Temperature
MP,DENS,1,7.85e-09,	! tonne mm^-3
MP,ALPX,1,1.2e-05,	! C^-1
MP,C,1,434000000,	! mm^2 s^-2 C^-1
MP,KXX,1,60.5,	! tonne mm s^-3 C^-1
MP,RSVX,1,0.00017,	! ohm mm
MP,EX,1,200000,	! tonne s^-2 mm^-1
MP,NUXY,1,0.3,
MP,MURX,1,10000,
MP,UVID,1,a9b62fb9-c93e-44f0-b728-d80bef8bc63f
MP,UMID,1,59002a79-71c2-428e-906b-55d7dbee100e

/wb,mat,end                !  done sending materials
!************************* Model Summary ********************
!Part,	Structural Steel,	matid,	1
!************************* End Model Summary ********************
! get the diagonal of the bounding box. Needed later for other things
*get,_xmin,node,,mnloc,x
*get,_ymin,node,,mnloc,y
*get,_zmin,node,,mnloc,z
*get,_xmax,node,,mxloc,x
*get,_ymax,node,,mxloc,y
*get,_zmax,node,,mxloc,z
_ASMDIAG=(_xmax-_xmin)*(_xmax-_xmin)+(_ymax-_ymin)*(_ymax-_ymin)+(_zmax-_zmin)*(_zmax-_zmin)
_ASMDIAG=SQRT(_ASMDIAG)
/wb,contact,start          !  starting to send contact
/wb,contact,end            !  done creating contacts
/golist
/wb,load,start             !  starting to send loads
/com,*********** Fixed Supports ***********
CMBLOCK,_FIXEDSU,NODE,      145
(8i10)
         1         2         3         4         5         6         7         8
         9        10       321       322       323       324       325       326
       327       328       329       330       331       332       333       334
       335       336       337       338       339       340       341       342
       343       344       345       346       347       348       349       761
       762       763       764       765       766      2177      2178      2179
      2180      2182      2183      2184      2188      2189      2190      2194
      2195      2196      2200      2201      2202      2207      2208      2213
      2216      2217      2218      2223      2226      2227      2228      4242
      4243      4244      4246      4247      4248      4249      4253      4254
      4255      4256      4260      4261      4262      4263      4267      4268
      4269      4270      4271      4275      4278      4283      4287      4290
      4293      4294      4295      4297      4298      4299      4303      4304
      4305      4309      4310      4311      4315      4316      4317      4321
      4322      4326      4329      4330      4336      4339      4340      4344
      4345      4346      4350      4351      4352      4353      4358      4359
      4360      4364      4365      4366      4367      4371      4372      4373
      4374      4379      4382      4387      4392      6827      6828      6834
      6845
cmsel,s,_FIXEDSU
d,all,all
nsel,all
/com,*********** Define Force Using Surface Effect Elements ***********
local,12,0,0.,0.,0.,0.,0.,0.
csys,0
et,2,154
eblock,10,,,22
(15i9)
    11010        2        2        2       12      466      478      473      473     5269     5314      473     5268
    11011        2        2        2       12      467      468      474      474     5276     5286      474     5277
    11012        2        2        2       12      462      472      476      476     5229     5306      476     5230
    11013        2        2        2       12      468      479      474      474     5287     5319      474     5286
    11014        2        2        2       12      461      476      471      471     5218     5303      471     5217
    11015        2        2        2       12      460      461      471      471     5202     5217      471     5203
    11016        2        2        2       12      462      463      472      472     5228     5239      472     5229
    11017        2        2        2       12      463      464      477      477     5238     5250      477     5240
    11018        2        2        2       12      461      462      476      476     5216     5230      476     5218
    11019        2        2        2       12      469      470      479      479     5292     5298      479     5293
    11020        2        2        2       12      464      465      477      477     5249     5259      477     5250
    11021        2        2        2       12      468      469      479      479     5285     5293      479     5287
    11022        2        2        2       12      465      473      477      477     5258     5313      477     5259
    11023        2        2        2       12      460      471      475      475     5203     5302      475     5204
    11024        2        2        2       12      465      466      473      473     5257     5268      473     5258
    11025        2        2        2       12      458      470      469      469     5185     5292      469     5184
    11026        2        2        2       12      466      467      478      478     5267     5278      478     5269
    11027        2        2        2       12      459      475      470      470     5195     5297      470     5194
    11028        2        2        2       12      467      474      478      478     5277     5318      478     5278
    11029        2        2        2       12      459      460      475      475     5193     5204      475     5195
    11030        2        2        2       12      458      459      470      470     5183     5194      470     5185
    11031        2        2        2       12      463      477      472      472     5240     5307      472     5239
-1
esel,s,type,,2
keyop,2,2,1                ! Apply load in local coordinate system
keyop,2,7,1                ! Use original area so load is constant in large deformation
esel,all
/gst,on,on
fini
*get,_numnode,node,0,count
*get,_numelem,elem,0,count
*get, _MAXELEMNUM, elem, 0, NUM, MAX
*get, _MAXNODENUM, node, 0, NUM, MAX
*get, _MAXELEMTYPE, etyp, 0, NUM, MAX
*get, _MAXREALCONST, real, 0, NUM, MAX
/go
/wb,load,end               !  done creating loads
/com,--- Number of total nodes = %_numnode%
/com,--- Number of contact elements = 22
/com,--- Number of spring elements = 0
/com,--- Number of bearing elements = 0
/com,--- Number of solid elements = 8015
/com,--- Number of condensed parts = 0
/com,--- Number of total elements = %_numelem%
*get,_wallbsol,active,,time,wall
/com,****************************************************************************
/com,*************************    SOLUTION       ********************************
/com,****************************************************************************
/solu
antype,0                   ! static analysis
_thickRatio=  1     ! Ratio of thick parts in the model
eqsl,pcg,1e-8,,,,,,1
cntr,print,1               ! print out contact info and also make no initial contact an error
dmpoption,emat,no             ! Don't combine emat file for DANSYS
dmpoption,esav,no             ! Don't combine esav file for DANSYS
nldiag,cont,iter           ! print out contact info each equilibrium iteration
rescontrol,,none                 ! Do not keep any restart files
/com,****************************************************
/com,******************* SOLVE FOR LS 1 OF 1 ****************
esel,s,type,,2
nsle
sfe,all,1,pres,1,0.
sfe,all,2,pres,1,0.
sfe,all,3,pres,1,-20.0691592224644
nsel,all
esel,all
/nopr
/gopr
nsub,1,1,1
time,1.
outres,erase
outres,all,none
outres,nsol,all,
outres,rsol,all
outres,eangl,all
outres,etmp,all
outres,veng,all
outres,strs,all,
outres,epel,all,
outres,eppl,all,
outres,cont,all,
! *********** WB SOLVE COMMAND ***********
! check interactive state
*get,ANSINTER_,active,,int
*if,ANSINTER_,ne,0,then
/eof
*endif
solve
/com *************** Write FE CONNECTORS ********* 
CEWRITE,file,ce,,INTE
/com,****************************************************
/com,*************** FINISHED SOLVE FOR LS 1 *************
*get,_wallasol,active,,time,wall
/nopr
*get,_numnode,node,0,count
*get,_numelem,elem,0,count
*get, _MAXELEMNUM, elem, 0, NUM, MAX
*get, _MAXNODENUM, node, 0, NUM, MAX,,,INTERNAL
*get, _MAXELEMTYPE, etyp, 0, NUM, MAX
*get, _MAXREALCONST, real, 0, NUM, MAX
/gopr
*get,_PCGITER,active,,solu,cgiter
/post1
xmlo,ENCODING,ISO-8859-1
xmlo,parm
/xml,parm,xml
fini
/gopr
*get,_walldone,active,,time,wall
_preptime=(_wallbsol-_wallstrt)*3600
_solvtime=(_wallasol-_wallbsol)*3600
_posttime=(_walldone-_wallasol)*3600
_totaltim=(_walldone-_wallstrt)*3600
*get,_dlbratio,active,0,solu,dlbr
*get,_combtime,active,0,solu,comb
*get,_ssmode,active,0,solu,ssmm
*get,_ndofs,active,0,solu,ndof
*get,_sol_end_time,active,0,set,time
*if,_sol_end_time,eq,1.000000,then
/fclean				!clean distributed files
*endif
/com,--- Total number of nodes = %_numnode%
/com,--- Total number of elements = %_numelem%
/com,--- Element load balance ratio = %_dlbratio%
/com,--- Time to combine distributed files = %_combtime%
/com,--- Sparse memory mode = %_ssmode%
/com,--- Number of DOF = %_ndofs%
/wb,file,end               ! done with WB generated input
