/batch
/config,noeldb,1     ! force off writing results to database
*get,_wallstrt,active,,time,wall
! ANSYS input file written by Workbench version 2022 R1
! File used for geometry attach: E:\ANSYS学习素材\第七课\几何模型\虎钳.x_t
/title,stduy_6--Static Structural (B5)
! ****** Begin Custom Load Command Snippet ******
/COM, ACT Extensions:
/COM,     LSDYNA, 2021.1
/COM,     5f463412-bd3e-484b-87e7-cbc0a665e474, wbex
/COM,
! ****** End   Custom Load Command Snippet ******
*DIM,_wb_ProjectScratch_dir,string,248
_wb_ProjectScratch_dir(1) = 'E:\ansys\ansys-code\_ProjectScratch\ScrC294\'
*DIM,_wb_SolverFiles_dir,string,248
_wb_SolverFiles_dir(1) = 'E:\ansys\ansys-code\stduy_6_files\dp0\SYS-1\MECH\'
*DIM,_wb_userfiles_dir,string,248
_wb_userfiles_dir(1) = 'E:\ansys\ansys-code\stduy_6_files\user_files\'
/com,--- Data in consistent NMM units. See Solving Units in the help system for more information.
/units,MPA
/nopr
/wb,file,start              !  signify a WB generated input file
/prep7
! Turn off shape checking because checks already performed inside WB mesher.
! See help system for more information.
SHPP,OFF,,NOWARN
/nolist
etcon,set             ! allow ANSYS to choose best KEYOP's for 180x elements, resets any applicable keyopt to MAPDL defaults
/com,*********** Nodes for the whole assembly ***********
nblock,3,,3527
(1i9,3e20.9e3)
        1     6.350000000E+00    -6.970723170E-16     0.000000000E+00
        2     4.864382214E+00    -4.081701322E+00     0.000000000E+00
        3     1.102665928E+00    -6.253529232E+00     0.000000000E+00
        4    -3.175000000E+00    -5.499261314E+00     0.000000000E+00
        5    -5.967048142E+00    -2.171827910E+00     0.000000000E+00
        6    -5.967048142E+00     2.171827910E+00     0.000000000E+00
        7    -3.175000000E+00     5.499261314E+00     0.000000000E+00
        8     1.102665928E+00     6.253529232E+00     0.000000000E+00
        9     4.864382214E+00     4.081701322E+00     0.000000000E+00
       10     6.350000000E+00     8.582291179E-16     2.540000000E+01
       11     4.864382214E+00     4.081701322E+00     2.540000000E+01
       12     1.102665928E+00     6.253529232E+00     2.540000000E+01
       13    -3.175000000E+00     5.499261314E+00     2.540000000E+01
       14    -5.967048142E+00     2.171827910E+00     2.540000000E+01
       15    -5.967048142E+00    -2.171827910E+00     2.540000000E+01
       16    -3.175000000E+00    -5.499261314E+00     2.540000000E+01
       17     1.102665928E+00    -6.253529232E+00     2.540000000E+01
       18     4.864382214E+00    -4.081701322E+00     2.540000000E+01
       19    -7.937500000E+00    -8.914849964E-16     2.857500000E+01
       20    -6.677449917E+00    -4.291336489E+00     2.857500000E+01
! ... 3188 like lines cut
/wb,elem,start            !  set before creation of elements
/com,*********** Elements for Body 1 "flat" ***********
et,1,186
keyo,1,2,1          ! set full integration on SOLID186
eblock,19,solid,,64
(19i9)
        1        1        1        1        0        0        0        0       20        0      228      565      670      671      672      566      631      630      629
      842     1052     1053      843      847      991      989      846      841      994      992      990
        1        1        1        1        0        0        0        0       20        0      229      550      565      672      673      581      566      629      628
      795      843     1054      797      845      846      987      892      796      841      990      988
        1        1        1        1        0        0        0        0       20        0      230      535      550      673      674      596      581      628      627
      748      797     1055      750      891      892      985      923      749      796      988      986
        1        1        1        1        0        0        0        0       20        0      231      535      674      675      676      596      627      626      625
      750     1056     1057      751      923      983      981      922      749      986      984      982
        1        1        1        1        0        0        0        0       20        0      232      564      669      670      565      567      632      631      566
      840     1051      842      838      850      993      847      844      839      996      994      841
        1        1        1        1        0        0        0        0       20        0      233      549      564      565      550      582      567      566      581
      793      838      795      792      849      844      845      890      794      839      841      796
        1        1        1        1        0        0        0        0       20        0      234      534      549      550      535      597      582      581      596
      745      792      748      744      894      890      891      921      746      794      796      749
        1        1        1        1        0        0        0        0       20        0      235      534      535      676      677      597      596      625      624
      744      751     1058      747      921      922      979      925      746      749      982      980
        1        1        1        1        0        0        0        0       20        0      236      563      668      669      564      568      633      632      567
      837     1050      840      835      853      995      850      848      836      998      996      839
        1        1        1        1        0        0        0        0       20        0      237      548      563      564      549      583      568      567      582
      790      835      793      789      852      848      849      893      791      836      839      794
! ... 109 like lines cut
!Material Id = {716A29D0-6153-4B06-9537-F6FCF29CB6EF}
/com,*********** Elements for Body 2 "pin" ***********
et,2,187
eblock,19,solid,,227
(19i9)
        2        2        2        2        0        0        0        0       10        0        1       69       77      100       97      411      449      415      414
      448      519
        2        2        2        2        0        0        0        0       10        0        2        4      100       69       77      140      415      137      138
      449      411
        2        2        2        2        0        0        0        0       10        0        3       65      100       77       97      397      449      394      396
      519      448
        2        2        2        2        0        0        0        0       10        0        4        4       65      100       77      136      397      140      138
      394      449
        2        2        2        2        0        0        0        0       10        0        5        5       69      100       97      148      415      152      151
      414      519
        2        2        2        2        0        0        0        0       10        0        6        4        5       69      100      131      148      137      140
      152      415
        2        2        2        2        0        0        0        0       10        0        7       65       73      100       97      393      434      397      396
      433      519
        2        2        2        2        0        0        0        0       10        0        8        2      100       65       73      122      397      119      120
      434      393
        2        2        2        2        0        0        0        0       10        0        9        3       65      100        4      128      397      130      123
      136      140
        2        2        2        2        0        0        0        0       10        0       10        1      100        2       73      113      122      101      110
      434      120
! ... 435 like lines cut
!Material Id = {160F18AA-F0FD-4A37-841B-080EBA54381C}
/com,*********** Elements for Body 3 "arm" ***********
et,3,187
eblock,19,solid,,474
(19i9)
        3        3        3        3        0        0        0        0       10        0      292     1097     1277     1109     1108     1428     1483     1427     1426
     1479     1476
        3        3        3        3        0        0        0        0       10        0      293     1108     1109     1123     1277     1476     1481     1478     1479
     1483     1548
        3        3        3        3        0        0        0        0       10        0      294     1081     1123     1277     1082     1344     1548     1346     1340
     1351     1352
        3        3        3        3        0        0        0        0       10        0      295     1081     1277     1097     1082     1346     1428     1342     1340
     1352     1348
        3        3        3        3        0        0        0        0       10        0      296     1108     1123     1122     1277     1478     1544     1477     1479
     1548     1546
        3        3        3        3        0        0        0        0       10        0      297     1082     1123     1277     1122     1351     1548     1352     1350
     1544     1546
        3        3        3        3        0        0        0        0       10        0      298     1107     1122     1277     1108     1473     1546     1475     1471
     1477     1479
        3        3        3        3        0        0        0        0       10        0      299     1083     1122     1277     1272     1357     1546     1359     1358
     1545     2138
        3        3        3        3        0        0        0        0       10        0      300     1082     1277     1083     1122     1352     1359     1347     1350
     1546     1357
        3        3        3        3        0        0        0        0       10        0      301     1098     1277     1107     1272     1433     1475     1430     1432
     2138     1474
! ... 929 like lines cut
!Material Id = {61A2CA11-B27A-4C87-9975-5B6AAC2600BE}
/com,*********** Elements for Body 4 "arm" ***********
et,4,187
eblock,19,solid,,474
(19i9)
        4        4        4        4        0        0        0        0       10        0      766     2165     2345     2177     2176     2496     2551     2495     2494
     2547     2544
        4        4        4        4        0        0        0        0       10        0      767     2176     2177     2191     2345     2544     2549     2546     2547
     2551     2616
        4        4        4        4        0        0        0        0       10        0      768     2149     2191     2345     2150     2412     2616     2414     2408
     2419     2420
        4        4        4        4        0        0        0        0       10        0      769     2149     2345     2165     2150     2414     2496     2410     2408
     2420     2416
        4        4        4        4        0        0        0        0       10        0      770     2176     2191     2190     2345     2546     2612     2545     2547
     2616     2614
        4        4        4        4        0        0        0        0       10        0      771     2150     2191     2345     2190     2419     2616     2420     2418
     2612     2614
        4        4        4        4        0        0        0        0       10        0      772     2175     2190     2345     2176     2541     2614     2543     2539
     2545     2547
        4        4        4        4        0        0        0        0       10        0      773     2151     2190     2345     2340     2425     2614     2427     2426
     2613     3206
        4        4        4        4        0        0        0        0       10        0      774     2150     2345     2151     2190     2420     2427     2415     2418
     2614     2425
        4        4        4        4        0        0        0        0       10        0      775     2166     2345     2175     2340     2501     2543     2498     2500
     3206     2542
! ... 929 like lines cut
!Material Id = {0812EB48-17D4-4D63-A24E-3F0A4F8DAA65}
/wb,elem,end               !  done creating elements
/com,*********** Send User Defined Coordinate System(s) ***********
csys,0
toffst,273.15,  ! Temperature offset from absolute zero
/com,*********** Set Reference Temperature ***********
tref,22.
/wb,mat,start              !  starting to send materials
/com,*********** Send Materials ***********
Temperature = 'TEMP' ! Temperature
MP,DENS,1,7.85e-09,	! tonne mm^-3
MP,ALPX,1,1.2e-05,	! C^-1
MP,C,1,434000000,	! mm^2 s^-2 C^-1
MP,KXX,1,60.5,	! tonne mm s^-3 C^-1
MP,RSVX,1,0.00017,	! ohm mm
MP,EX,1,200000,	! tonne s^-2 mm^-1
MP,NUXY,1,0.3,
MP,MURX,1,10000,
MP,UVID,1,98915189-b8e4-4f6d-bd37-9cf27907b9b3
MP,UMID,1,59002a79-71c2-428e-906b-55d7dbee100e

Temperature = 'TEMP' ! Temperature
MP,DENS,2,7.85e-09,	! tonne mm^-3
MP,ALPX,2,1.2e-05,	! C^-1
MP,C,2,434000000,	! mm^2 s^-2 C^-1
MP,KXX,2,60.5,	! tonne mm s^-3 C^-1
MP,RSVX,2,0.00017,	! ohm mm
MP,EX,2,200000,	! tonne s^-2 mm^-1
MP,NUXY,2,0.3,
MP,MURX,2,10000,
MP,UVID,2,98915189-b8e4-4f6d-bd37-9cf27907b9b3
MP,UMID,2,59002a79-71c2-428e-906b-55d7dbee100e

Temperature = 'TEMP' ! Temperature
MP,DENS,3,7.85e-09,	! tonne mm^-3
MP,ALPX,3,1.2e-05,	! C^-1
MP,C,3,434000000,	! mm^2 s^-2 C^-1
MP,KXX,3,60.5,	! tonne mm s^-3 C^-1
MP,RSVX,3,0.00017,	! ohm mm
MP,EX,3,200000,	! tonne s^-2 mm^-1
MP,NUXY,3,0.3,
MP,MURX,3,10000,
MP,UVID,3,98915189-b8e4-4f6d-bd37-9cf27907b9b3
MP,UMID,3,59002a79-71c2-428e-906b-55d7dbee100e

Temperature = 'TEMP' ! Temperature
MP,DENS,4,7.85e-09,	! tonne mm^-3
MP,ALPX,4,1.2e-05,	! C^-1
MP,C,4,434000000,	! mm^2 s^-2 C^-1
MP,KXX,4,60.5,	! tonne mm s^-3 C^-1
MP,RSVX,4,0.00017,	! ohm mm
MP,EX,4,200000,	! tonne s^-2 mm^-1
MP,NUXY,4,0.3,
MP,MURX,4,10000,
MP,UVID,4,98915189-b8e4-4f6d-bd37-9cf27907b9b3
MP,UMID,4,59002a79-71c2-428e-906b-55d7dbee100e

/wb,mat,end                !  done sending materials
!************************* Model Summary ********************
!flat,	Structural Steel,	matid,	1
!pin,	Structural Steel,	matid,	2
!arm,	Structural Steel,	matid,	3
!arm,	Structural Steel,	matid,	4
!************************* End Model Summary ********************
! get the diagonal of the bounding box. Needed later for other things
*get,_xmin,node,,mnloc,x
*get,_ymin,node,,mnloc,y
*get,_zmin,node,,mnloc,z
*get,_xmax,node,,mxloc,x
*get,_ymax,node,,mxloc,y
*get,_zmax,node,,mxloc,z
_ASMDIAG=(_xmax-_xmin)*(_xmax-_xmin)+(_ymax-_ymin)*(_ymax-_ymin)+(_zmax-_zmin)*(_zmax-_zmin)
_ASMDIAG=SQRT(_ASMDIAG)
/wb,contact,start          !  starting to send contact
/com,*********** Create Contact "Frictionless - flat To arm" ***********
/com,            Real Constant Set For Above Contact Is 6 & 5 
*set,tid,6
*set,cid,5
r,tid
r,cid
et,tid,170
et,cid,174
eblock,10,,,12
(15i9)
     2324        6        6        6        0      664      559      560      665      825      823      828     1046
     2325        6        6        6        0      559      544      545      560      778      777      781      823
     2326        6        6        6        0      544      529      530      545      725      724      729      777
     2327        6        6        6        0      663      558      559      664      822      820      825     1045
     2328        6        6        6        0      558      543      544      559      775      774      778      820
     2329        6        6        6        0      543      528      529      544      721      720      725      774
     2330        6        6        6        0      662      557      558      663      819      817      822     1044
     2331        6        6        6        0      557      542      543      558      772      771      775      817
     2332        6        6        6        0      542      527      528      543      717      716      721      771
     2333        6        6        6        0      661      556      557      662      816      814      819     1043
     2334        6        6        6        0      556      541      542      557      769      768      772      814
     2335        6        6        6        0      541      526      527      542      713      712      717      768
-1
eblock,10,,,12
(15i9)
     2336        5        5        5        0      664      559      560      665      825      823      828     1046
     2337        5        5        5        0      559      544      545      560      778      777      781      823
     2338        5        5        5        0      544      529      530      545      725      724      729      777
     2339        5        5        5        0      663      558      559      664      822      820      825     1045
     2340        5        5        5        0      558      543      544      559      775      774      778      820
     2341        5        5        5        0      543      528      529      544      721      720      725      774
     2342        5        5        5        0      662      557      558      663      819      817      822     1044
     2343        5        5        5        0      557      542      543      558      772      771      775      817
     2344        5        5        5        0      542      527      528      543      717      716      721      771
     2345        5        5        5        0      661      556      557      662      816      814      819     1043
     2346        5        5        5        0      556      541      542      557      769      768      772      814
     2347        5        5        5        0      541      526      527      542      713      712      717      768
-1
eblock,10,,,8
(15i9)
     2348        5        6        5        0     1193     1224     1237     1237     1864     1982     1237     1865
     2349        5        6        5        0     1178     1236     1201     1201     1816     1905     1201     1813
     2350        5        6        5        0     1178     1201     1237     1237     1813     1906     1237     1817
     2351        5        6        5        0     1178     1225     1236     1236     1815     1985     1236     1816
     2352        5        6        5        0     1174     1178     1224     1224     1798     1814     1224     1799
     2353        5        6        5        0     1178     1237     1224     1224     1817     1982     1224     1814
     2354        5        6        5        0     1177     1225     1178     1178     1812     1815     1178     1811
     2355        5        6        5        0     1197     1236     1225     1225     1883     1985     1225     1882
-1
eblock,10,,,8
(15i9)
     2356        6        5        6        0     1193     1224     1237     1237     1864     1982     1237     1865
     2357        6        5        6        0     1178     1236     1201     1201     1816     1905     1201     1813
     2358        6        5        6        0     1178     1201     1237     1237     1813     1906     1237     1817
     2359        6        5        6        0     1178     1225     1236     1236     1815     1985     1236     1816
     2360        6        5        6        0     1174     1178     1224     1224     1798     1814     1224     1799
     2361        6        5        6        0     1178     1237     1224     1224     1817     1982     1224     1814
     2362        6        5        6        0     1177     1225     1178     1178     1812     1815     1178     1811
     2363        6        5        6        0     1197     1236     1225     1225     1883     1985     1225     1882
-1
keyo,cid,8,2               ! auto create asymmetric contact (from Program Controlled setting)
keyo,cid,10,0              ! adjust contact stiffness each NR iteration (from Program Controlled setting)
keyo,cid,12,0              ! standard contact
keyo,cid,18,1              ! small sliding turned on by application
keyo,cid,2,0               ! augmented Lagrange (from Program Controlled setting)
keyo,cid,4,0               ! on Gauss point (from Program Controlled setting)
keyo,cid,9,0               ! use real geometry with stepped effects
keyo,cid,7,0               ! No Prediction
rmod,tid,3,1.       ! FKN
rmod,tid,5,0.       ! ICONT
rmod,tid,6,0.       ! PINB
rmod,tid,10,0.      ! CNOF
rmod,tid,12,0.      ! FKT
rmod,tid,36,35      ! WB DSID
rmod,cid,3,1.       ! FKN
rmod,cid,5,0.       ! ICONT
rmod,cid,6,0.       ! PINB
rmod,cid,10,0.      ! CNOF
rmod,cid,12,0.      ! FKT
rmod,cid,36,35      ! WB DSID
/com,*********** Create Contact "Frictionless - flat To arm" ***********
/com,            Real Constant Set For Above Contact Is 8 & 7 
*set,tid,8
*set,cid,7
r,tid
r,cid
et,tid,170
et,cid,174
eblock,10,,,12
(15i9)
     2364        8        8        8        0      571      572      637      636      860      865     1003      862
     2365        8        8        8        0      586      587      572      571      901      864      860      861
     2366        8        8        8        0      601      602      587      586      932      904      901      902
     2367        8        8        8        0      572      573      638      637      863      868     1005      865
     2368        8        8        8        0      587      588      573      572      903      867      863      864
     2369        8        8        8        0      602      603      588      587      934      906      903      904
     2370        8        8        8        0      573      574      639      638      866      871     1007      868
     2371        8        8        8        0      588      589      574      573      905      870      866      867
     2372        8        8        8        0      603      604      589      588      936      908      905      906
     2373        8        8        8        0      574      575      640      639      869      874     1009      871
     2374        8        8        8        0      589      590      575      574      907      873      869      870
     2375        8        8        8        0      604      605      590      589      938      910      907      908
-1
eblock,10,,,12
(15i9)
     2376        7        7        7        0      571      572      637      636      860      865     1003      862
     2377        7        7        7        0      586      587      572      571      901      864      860      861
     2378        7        7        7        0      601      602      587      586      932      904      901      902
     2379        7        7        7        0      572      573      638      637      863      868     1005      865
     2380        7        7        7        0      587      588      573      572      903      867      863      864
     2381        7        7        7        0      602      603      588      587      934      906      903      904
     2382        7        7        7        0      573      574      639      638      866      871     1007      868
     2383        7        7        7        0      588      589      574      573      905      870      866      867
     2384        7        7        7        0      603      604      589      588      936      908      905      906
     2385        7        7        7        0      574      575      640      639      869      874     1009      871
     2386        7        7        7        0      589      590      575      574      907      873      869      870
     2387        7        7        7        0      604      605      590      589      938      910      907      908
-1
eblock,10,,,8
(15i9)
     2388        7        8        7        0     2261     2292     2305     2305     2932     3050     2305     2933
     2389        7        8        7        0     2246     2304     2269     2269     2884     2973     2269     2881
     2390        7        8        7        0     2246     2269     2305     2305     2881     2974     2305     2885
     2391        7        8        7        0     2246     2293     2304     2304     2883     3053     2304     2884
     2392        7        8        7        0     2242     2246     2292     2292     2866     2882     2292     2867
     2393        7        8        7        0     2246     2305     2292     2292     2885     3050     2292     2882
     2394        7        8        7        0     2245     2293     2246     2246     2880     2883     2246     2879
     2395        7        8        7        0     2265     2304     2293     2293     2951     3053     2293     2950
-1
eblock,10,,,8
(15i9)
     2396        8        7        8        0     2261     2292     2305     2305     2932     3050     2305     2933
     2397        8        7        8        0     2246     2304     2269     2269     2884     2973     2269     2881
     2398        8        7        8        0     2246     2269     2305     2305     2881     2974     2305     2885
     2399        8        7        8        0     2246     2293     2304     2304     2883     3053     2304     2884
     2400        8        7        8        0     2242     2246     2292     2292     2866     2882     2292     2867
     2401        8        7        8        0     2246     2305     2292     2292     2885     3050     2292     2882
     2402        8        7        8        0     2245     2293     2246     2246     2880     2883     2246     2879
     2403        8        7        8        0     2265     2304     2293     2293     2951     3053     2293     2950
-1
keyo,cid,8,2               ! auto create asymmetric contact (from Program Controlled setting)
keyo,cid,10,0              ! adjust contact stiffness each NR iteration (from Program Controlled setting)
keyo,cid,12,0              ! standard contact
keyo,cid,18,1              ! small sliding turned on by application
keyo,cid,2,0               ! augmented Lagrange (from Program Controlled setting)
keyo,cid,4,0               ! on Gauss point (from Program Controlled setting)
keyo,cid,9,0               ! use real geometry with stepped effects
keyo,cid,7,0               ! No Prediction
rmod,tid,3,1.       ! FKN
rmod,tid,5,0.       ! ICONT
rmod,tid,6,0.       ! PINB
rmod,tid,10,0.      ! CNOF
rmod,tid,12,0.      ! FKT
rmod,tid,36,38      ! WB DSID
rmod,cid,3,1.       ! FKN
rmod,cid,5,0.       ! ICONT
rmod,cid,6,0.       ! PINB
rmod,cid,10,0.      ! CNOF
rmod,cid,12,0.      ! FKT
rmod,cid,36,38      ! WB DSID
/com,*********** Create Contact "Frictionless - pin To arm" ***********
/com,            Real Constant Set For Above Contact Is 10 & 9 
*set,tid,10
*set,cid,9
r,tid
r,cid
et,tid,170
et,cid,174
eblock,10,,,69
(15i9)
     2404       10       10       10        0        1        9       63       63      102      184       63      109
     2405       10       10       10        0        9       71       63       63      185      383       63      184
     2406       10       10       10        0        3        2       65       65      114      119       65      128
     2407       10       10       10        0        7        6       66       66      153      158       66      167
     2408       10       10       10        0        4        3       65       65      123      128       65      136
     2409       10       10       10        0        5        4       69       69      131      137       69      148
     2410       10       10       10        0        6        5       74       74      141      149       74      159
     2411       10       10       10        0        8        7       66       66      162      167       66      175
     2412       10       10       10        0        2        1       73       73      101      110       73      120
     2413       10       10       10        0        8       71        9        9      176      185        9      170
     2414       10       10       10        0       65        2       73       73      119      120       73      393
     2415       10       10       10        0       66        6       74       74      158      159       74      398
     2416       10       10       10        0        4       65       77       77      136      394       77      138
     2417       10       10       10        0       69        4       77       77      137      138       77      411
     2418       10       10       10        0       74        5       69       69      149      148       69      410
     2419       10       10       10        0        8       66       79       79      175      399       79      177
     2420       10       10       10        0       73        1       63       63      110      109       63      384
     2421       10       10       10        0       63       71       81       81      383      422       81      385
     2422       10       10       10        0       71        8       79       79      176      177       79      421
     2423       10       10       10        0       65       73       83       83      393      431       83      395
! ... 50 like lines cut
eblock,10,,,69
(15i9)
     2473        9        9        9        0        1        9       63       63      102      184       63      109
     2474        9        9        9        0        9       71       63       63      185      383       63      184
     2475        9        9        9        0        3        2       65       65      114      119       65      128
     2476        9        9        9        0        7        6       66       66      153      158       66      167
     2477        9        9        9        0        4        3       65       65      123      128       65      136
     2478        9        9        9        0        5        4       69       69      131      137       69      148
     2479        9        9        9        0        6        5       74       74      141      149       74      159
     2480        9        9        9        0        8        7       66       66      162      167       66      175
     2481        9        9        9        0        2        1       73       73      101      110       73      120
     2482        9        9        9        0        8       71        9        9      176      185        9      170
     2483        9        9        9        0       65        2       73       73      119      120       73      393
     2484        9        9        9        0       66        6       74       74      158      159       74      398
     2485        9        9        9        0        4       65       77       77      136      394       77      138
     2486        9        9        9        0       69        4       77       77      137      138       77      411
     2487        9        9        9        0       74        5       69       69      149      148       69      410
     2488        9        9        9        0        8       66       79       79      175      399       79      177
     2489        9        9        9        0       73        1       63       63      110      109       63      384
     2490        9        9        9        0       63       71       81       81      383      422       81      385
     2491        9        9        9        0       71        8       79       79      176      177       79      421
     2492        9        9        9        0       65       73       83       83      393      431       83      395
! ... 50 like lines cut
eblock,10,,,33
(15i9)
     2542        9       10        9        0     1156     1163     1148     1148     1709     1673     1148     1672
     2543        9       10        9        0     1148     1155     1156     1156     1671     1703     1156     1672
     2544        9       10        9        0     1150     1162     1158     1158     1682     1718     1158     1681
     2545        9       10        9        0     1154     1158     1161     1161     1700     1717     1161     1701
     2546        9       10        9        0     1150     1158     1154     1154     1681     1700     1154     1680
     2547        9       10        9        0     1153     1162     1150     1150     1695     1682     1150     1679
     2548        9       10        9        0     1149     1163     1159     1159     1678     1723     1159     1677
     2549        9       10        9        0     1157     1160     1151     1151     1713     1689     1151     1688
     2550        9       10        9        0     1156     1155     1160     1160     1703     1704     1160     1708
     2551        9       10        9        0     1151     1160     1155     1155     1689     1704     1155     1687
     2552        9       10        9        0     1152     1163     1149     1149     1693     1678     1149     1675
     2553        9       10        9        0     1148     1163     1152     1152     1673     1693     1152     1670
     2554        9       10        9        0     1153     1159     1162     1162     1694     1722     1162     1695
     2555        9       10        9        0     1157     1151     1161     1161     1688     1690     1161     1714
     2556        9       10        9        0     1161     1151     1154     1154     1690     1686     1154     1701
     2557        9       10        9        0     1149     1159     1153     1153     1677     1694     1153     1676
     2558        9       10        9        0     1150     1183     1153     1153     1683     1697     1153     1679
     2559        9       10        9        0     1136     1150     1154     1154     1620     1680     1154     1621
     2560        9       10        9        0     1117     1155     1118     1118     1523     1526     1118     1520
     2561        9       10        9        0     1117     1151     1155     1155     1522     1687     1155     1523
! ... 14 like lines cut
eblock,10,,,33
(15i9)
     2575       10        9       10        0     1156     1163     1148     1148     1709     1673     1148     1672
     2576       10        9       10        0     1148     1155     1156     1156     1671     1703     1156     1672
     2577       10        9       10        0     1150     1162     1158     1158     1682     1718     1158     1681
     2578       10        9       10        0     1154     1158     1161     1161     1700     1717     1161     1701
     2579       10        9       10        0     1150     1158     1154     1154     1681     1700     1154     1680
     2580       10        9       10        0     1153     1162     1150     1150     1695     1682     1150     1679
     2581       10        9       10        0     1149     1163     1159     1159     1678     1723     1159     1677
     2582       10        9       10        0     1157     1160     1151     1151     1713     1689     1151     1688
     2583       10        9       10        0     1156     1155     1160     1160     1703     1704     1160     1708
     2584       10        9       10        0     1151     1160     1155     1155     1689     1704     1155     1687
     2585       10        9       10        0     1152     1163     1149     1149     1693     1678     1149     1675
     2586       10        9       10        0     1148     1163     1152     1152     1673     1693     1152     1670
     2587       10        9       10        0     1153     1159     1162     1162     1694     1722     1162     1695
     2588       10        9       10        0     1157     1151     1161     1161     1688     1690     1161     1714
     2589       10        9       10        0     1161     1151     1154     1154     1690     1686     1154     1701
     2590       10        9       10        0     1149     1159     1153     1153     1677     1694     1153     1676
     2591       10        9       10        0     1150     1183     1153     1153     1683     1697     1153     1679
     2592       10        9       10        0     1136     1150     1154     1154     1620     1680     1154     1621
     2593       10        9       10        0     1117     1155     1118     1118     1523     1526     1118     1520
     2594       10        9       10        0     1117     1151     1155     1155     1522     1687     1155     1523
! ... 14 like lines cut
keyo,cid,8,2               ! auto create asymmetric contact (from Program Controlled setting)
keyo,cid,10,0              ! adjust contact stiffness each NR iteration (from Program Controlled setting)
keyo,cid,12,0              ! standard contact
keyo,cid,18,1              ! small sliding turned on by application
keyo,cid,2,0               ! augmented Lagrange (from Program Controlled setting)
keyo,cid,4,0               ! on Gauss point (from Program Controlled setting)
keyo,cid,9,0               ! use real geometry with stepped effects
keyo,cid,7,0               ! No Prediction
rmod,tid,3,1.       ! FKN
rmod,tid,5,0.       ! ICONT
rmod,tid,6,0.       ! PINB
rmod,tid,10,0.      ! CNOF
rmod,tid,12,0.      ! FKT
rmod,tid,36,41      ! WB DSID
rmod,cid,3,1.       ! FKN
rmod,cid,5,0.       ! ICONT
rmod,cid,6,0.       ! PINB
rmod,cid,10,0.      ! CNOF
rmod,cid,12,0.      ! FKT
rmod,cid,36,41      ! WB DSID
/com,*********** Create Contact "Frictionless - pin To arm" ***********
/com,            Real Constant Set For Above Contact Is 12 & 11 
*set,tid,12
*set,cid,11
r,tid
r,cid
et,tid,170
et,cid,174
eblock,10,,,71
(15i9)
     2608       12       12       12        0       10       18       64       64      189      269       64      194
     2609       12       12       12        0       18       72       64       64      270      388       64      269
     2610       12       12       12        0       12       11       67       67      198      203       67      214
     2611       12       12       12        0       16       15       68       68      236      241       68      250
     2612       12       12       12        0       13       12       67       67      207      214       67      222
     2613       12       12       12        0       14       13       70       70      217      223       70      232
     2614       12       12       12        0       15       14       76       76      227      233       76      242
     2615       12       12       12        0       17       16       68       68      245      250       68      260
     2616       12       12       12        0       11       10       75       75      188      195       75      204
     2617       12       12       12        0       17       72       18       18      261      270       18      253
     2618       12       12       12        0       67       11       75       75      203      204       75      402
     2619       12       12       12        0       68       15       76       76      241      242       76      406
     2620       12       12       12        0       13       67       78       78      222      403       78      224
     2621       12       12       12        0       70       13       78       78      223      224       78      417
     2622       12       12       12        0       76       14       70       70      233      232       70      416
     2623       12       12       12        0       17       68       80       80      260      407       80      262
     2624       12       12       12        0       75       10       64       64      195      194       64      389
     2625       12       12       12        0       63       71       81       81      383      422       81      385
     2626       12       12       12        0       64       72       82       82      388      427       82      390
     2627       12       12       12        0       72       17       80       80      261      262       80      426
! ... 52 like lines cut
eblock,10,,,71
(15i9)
     2679       11       11       11        0       10       18       64       64      189      269       64      194
     2680       11       11       11        0       18       72       64       64      270      388       64      269
     2681       11       11       11        0       12       11       67       67      198      203       67      214
     2682       11       11       11        0       16       15       68       68      236      241       68      250
     2683       11       11       11        0       13       12       67       67      207      214       67      222
     2684       11       11       11        0       14       13       70       70      217      223       70      232
     2685       11       11       11        0       15       14       76       76      227      233       76      242
     2686       11       11       11        0       17       16       68       68      245      250       68      260
     2687       11       11       11        0       11       10       75       75      188      195       75      204
     2688       11       11       11        0       17       72       18       18      261      270       18      253
     2689       11       11       11        0       67       11       75       75      203      204       75      402
     2690       11       11       11        0       68       15       76       76      241      242       76      406
     2691       11       11       11        0       13       67       78       78      222      403       78      224
     2692       11       11       11        0       70       13       78       78      223      224       78      417
     2693       11       11       11        0       76       14       70       70      233      232       70      416
     2694       11       11       11        0       17       68       80       80      260      407       80      262
     2695       11       11       11        0       75       10       64       64      195      194       64      389
     2696       11       11       11        0       63       71       81       81      383      422       81      385
     2697       11       11       11        0       64       72       82       82      388      427       82      390
     2698       11       11       11        0       72       17       80       80      261      262       80      426
! ... 52 like lines cut
eblock,10,,,33
(15i9)
     2750       11       12       11        0     2224     2231     2216     2216     2777     2741     2216     2740
     2751       11       12       11        0     2216     2223     2224     2224     2739     2771     2224     2740
     2752       11       12       11        0     2218     2230     2226     2226     2750     2786     2226     2749
     2753       11       12       11        0     2222     2226     2229     2229     2768     2785     2229     2769
     2754       11       12       11        0     2218     2226     2222     2222     2749     2768     2222     2748
     2755       11       12       11        0     2221     2230     2218     2218     2763     2750     2218     2747
     2756       11       12       11        0     2217     2231     2227     2227     2746     2791     2227     2745
     2757       11       12       11        0     2225     2228     2219     2219     2781     2757     2219     2756
     2758       11       12       11        0     2224     2223     2228     2228     2771     2772     2228     2776
     2759       11       12       11        0     2219     2228     2223     2223     2757     2772     2223     2755
     2760       11       12       11        0     2220     2231     2217     2217     2761     2746     2217     2743
     2761       11       12       11        0     2216     2231     2220     2220     2741     2761     2220     2738
     2762       11       12       11        0     2221     2227     2230     2230     2762     2790     2230     2763
     2763       11       12       11        0     2225     2219     2229     2229     2756     2758     2229     2782
     2764       11       12       11        0     2229     2219     2222     2222     2758     2754     2222     2769
     2765       11       12       11        0     2217     2227     2221     2221     2745     2762     2221     2744
     2766       11       12       11        0     2218     2251     2221     2221     2751     2765     2221     2747
     2767       11       12       11        0     2204     2218     2222     2222     2688     2748     2222     2689
     2768       11       12       11        0     2185     2223     2186     2186     2591     2594     2186     2588
     2769       11       12       11        0     2185     2219     2223     2223     2590     2755     2223     2591
! ... 14 like lines cut
eblock,10,,,33
(15i9)
     2783       12       11       12        0     2224     2231     2216     2216     2777     2741     2216     2740
     2784       12       11       12        0     2216     2223     2224     2224     2739     2771     2224     2740
     2785       12       11       12        0     2218     2230     2226     2226     2750     2786     2226     2749
     2786       12       11       12        0     2222     2226     2229     2229     2768     2785     2229     2769
     2787       12       11       12        0     2218     2226     2222     2222     2749     2768     2222     2748
     2788       12       11       12        0     2221     2230     2218     2218     2763     2750     2218     2747
     2789       12       11       12        0     2217     2231     2227     2227     2746     2791     2227     2745
     2790       12       11       12        0     2225     2228     2219     2219     2781     2757     2219     2756
     2791       12       11       12        0     2224     2223     2228     2228     2771     2772     2228     2776
     2792       12       11       12        0     2219     2228     2223     2223     2757     2772     2223     2755
     2793       12       11       12        0     2220     2231     2217     2217     2761     2746     2217     2743
     2794       12       11       12        0     2216     2231     2220     2220     2741     2761     2220     2738
     2795       12       11       12        0     2221     2227     2230     2230     2762     2790     2230     2763
     2796       12       11       12        0     2225     2219     2229     2229     2756     2758     2229     2782
     2797       12       11       12        0     2229     2219     2222     2222     2758     2754     2222     2769
     2798       12       11       12        0     2217     2227     2221     2221     2745     2762     2221     2744
     2799       12       11       12        0     2218     2251     2221     2221     2751     2765     2221     2747
     2800       12       11       12        0     2204     2218     2222     2222     2688     2748     2222     2689
     2801       12       11       12        0     2185     2223     2186     2186     2591     2594     2186     2588
     2802       12       11       12        0     2185     2219     2223     2223     2590     2755     2223     2591
! ... 14 like lines cut
keyo,cid,8,2               ! auto create asymmetric contact (from Program Controlled setting)
keyo,cid,10,0              ! adjust contact stiffness each NR iteration (from Program Controlled setting)
keyo,cid,12,0              ! standard contact
keyo,cid,18,1              ! small sliding turned on by application
keyo,cid,2,0               ! augmented Lagrange (from Program Controlled setting)
keyo,cid,4,0               ! on Gauss point (from Program Controlled setting)
keyo,cid,9,0               ! use real geometry with stepped effects
keyo,cid,7,0               ! No Prediction
rmod,tid,3,1.       ! FKN
rmod,tid,5,0.       ! ICONT
rmod,tid,6,0.       ! PINB
rmod,tid,10,0.      ! CNOF
rmod,tid,12,0.      ! FKT
rmod,tid,36,44      ! WB DSID
rmod,cid,3,1.       ! FKN
rmod,cid,5,0.       ! ICONT
rmod,cid,6,0.       ! PINB
rmod,cid,10,0.      ! CNOF
rmod,cid,12,0.      ! FKT
rmod,cid,36,44      ! WB DSID
/com,*********** Create Contact "Frictionless - arm To arm" ***********
/com,            Real Constant Set For Above Contact Is 14 & 13 
*set,tid,14
*set,cid,13
r,tid
r,cid
et,tid,170
et,cid,174
eblock,10,,,36
(15i9)
     2816       14       14       14        0     1138     1163     1139     1139     1633     1636     1139     1629
     2817       14       14       14        0     1138     1159     1163     1163     1632     1723     1163     1633
     2818       14       14       14        0     1156     1160     1246     1246     1708     1726     1246     1711
     2819       14       14       14        0     1139     1163     1215     1215     1636     1735     1215     1637
     2820       14       14       14        0     1156     1215     1163     1163     1710     1735     1163     1709
     2821       14       14       14        0     1134     1135     1161     1161     1605     1617     1161     1608
     2822       14       14       14        0     1086     1215     1156     1156     1374     1710     1156     1372
     2823       14       14       14        0     1135     1157     1161     1161     1616     1714     1161     1617
     2824       14       14       14        0     1169     1218     1245     1245     1766     1962     1245     1767
     2825       14       14       14        0     1115     1157     1135     1135     1510     1616     1135     1507
     2826       14       14       14        0     1115     1116     1157     1157     1505     1515     1157     1510
     2827       14       14       14        0     1134     1161     1158     1158     1608     1717     1158     1607
     2828       14       14       14        0     1167     1233     1245     1245     1756     2023     1245     1757
     2829       14       14       14        0     1200     1246     1234     1234     1901     2029     1234     1898
     2830       14       14       14        0     1113     1246     1207     1207     1497     1926     1207     1495
     2831       14       14       14        0     1162     1247     1158     1158     1732     1719     1158     1718
     2832       14       14       14        0     1086     1235     1202     1202     1375     1910     1202     1373
     2833       14       14       14        0     1113     1234     1246     1246     1496     2029     1246     1497
     2834       14       14       14        0     1159     1169     1162     1162     1724     1730     1162     1722
     2835       14       14       14        0     1116     1160     1157     1157     1516     1713     1157     1515
! ... 17 like lines cut
eblock,10,,,36
(15i9)
     2852       13       13       13        0     1138     1163     1139     1139     1633     1636     1139     1629
     2853       13       13       13        0     1138     1159     1163     1163     1632     1723     1163     1633
     2854       13       13       13        0     1156     1160     1246     1246     1708     1726     1246     1711
     2855       13       13       13        0     1139     1163     1215     1215     1636     1735     1215     1637
     2856       13       13       13        0     1156     1215     1163     1163     1710     1735     1163     1709
     2857       13       13       13        0     1134     1135     1161     1161     1605     1617     1161     1608
     2858       13       13       13        0     1086     1215     1156     1156     1374     1710     1156     1372
     2859       13       13       13        0     1135     1157     1161     1161     1616     1714     1161     1617
     2860       13       13       13        0     1169     1218     1245     1245     1766     1962     1245     1767
     2861       13       13       13        0     1115     1157     1135     1135     1510     1616     1135     1507
     2862       13       13       13        0     1115     1116     1157     1157     1505     1515     1157     1510
     2863       13       13       13        0     1134     1161     1158     1158     1608     1717     1158     1607
     2864       13       13       13        0     1167     1233     1245     1245     1756     2023     1245     1757
     2865       13       13       13        0     1200     1246     1234     1234     1901     2029     1234     1898
     2866       13       13       13        0     1113     1246     1207     1207     1497     1926     1207     1495
     2867       13       13       13        0     1162     1247     1158     1158     1732     1719     1158     1718
     2868       13       13       13        0     1086     1235     1202     1202     1375     1910     1202     1373
     2869       13       13       13        0     1113     1234     1246     1246     1496     2029     1246     1497
     2870       13       13       13        0     1159     1169     1162     1162     1724     1730     1162     1722
     2871       13       13       13        0     1116     1160     1157     1157     1516     1713     1157     1515
! ... 17 like lines cut
eblock,10,,,36
(15i9)
     2888       13       14       13        0     2206     2231     2207     2207     2701     2704     2207     2697
     2889       13       14       13        0     2206     2227     2231     2231     2700     2791     2231     2701
     2890       13       14       13        0     2224     2228     2314     2314     2776     2794     2314     2779
     2891       13       14       13        0     2207     2231     2283     2283     2704     2803     2283     2705
     2892       13       14       13        0     2224     2283     2231     2231     2778     2803     2231     2777
     2893       13       14       13        0     2202     2203     2229     2229     2673     2685     2229     2676
     2894       13       14       13        0     2154     2283     2224     2224     2442     2778     2224     2440
     2895       13       14       13        0     2203     2225     2229     2229     2684     2782     2229     2685
     2896       13       14       13        0     2237     2286     2313     2313     2834     3030     2313     2835
     2897       13       14       13        0     2183     2225     2203     2203     2578     2684     2203     2575
     2898       13       14       13        0     2183     2184     2225     2225     2573     2583     2225     2578
     2899       13       14       13        0     2202     2229     2226     2226     2676     2785     2226     2675
     2900       13       14       13        0     2235     2301     2313     2313     2824     3091     2313     2825
     2901       13       14       13        0     2268     2314     2302     2302     2969     3097     2302     2966
     2902       13       14       13        0     2181     2314     2275     2275     2565     2994     2275     2563
     2903       13       14       13        0     2230     2315     2226     2226     2800     2787     2226     2786
     2904       13       14       13        0     2154     2303     2270     2270     2443     2978     2270     2441
     2905       13       14       13        0     2181     2302     2314     2314     2564     3097     2314     2565
     2906       13       14       13        0     2227     2237     2230     2230     2792     2798     2230     2790
     2907       13       14       13        0     2184     2228     2225     2225     2584     2781     2225     2583
! ... 17 like lines cut
eblock,10,,,36
(15i9)
     2924       14       13       14        0     2206     2231     2207     2207     2701     2704     2207     2697
     2925       14       13       14        0     2206     2227     2231     2231     2700     2791     2231     2701
     2926       14       13       14        0     2224     2228     2314     2314     2776     2794     2314     2779
     2927       14       13       14        0     2207     2231     2283     2283     2704     2803     2283     2705
     2928       14       13       14        0     2224     2283     2231     2231     2778     2803     2231     2777
     2929       14       13       14        0     2202     2203     2229     2229     2673     2685     2229     2676
     2930       14       13       14        0     2154     2283     2224     2224     2442     2778     2224     2440
     2931       14       13       14        0     2203     2225     2229     2229     2684     2782     2229     2685
     2932       14       13       14        0     2237     2286     2313     2313     2834     3030     2313     2835
     2933       14       13       14        0     2183     2225     2203     2203     2578     2684     2203     2575
     2934       14       13       14        0     2183     2184     2225     2225     2573     2583     2225     2578
     2935       14       13       14        0     2202     2229     2226     2226     2676     2785     2226     2675
     2936       14       13       14        0     2235     2301     2313     2313     2824     3091     2313     2825
     2937       14       13       14        0     2268     2314     2302     2302     2969     3097     2302     2966
     2938       14       13       14        0     2181     2314     2275     2275     2565     2994     2275     2563
     2939       14       13       14        0     2230     2315     2226     2226     2800     2787     2226     2786
     2940       14       13       14        0     2154     2303     2270     2270     2443     2978     2270     2441
     2941       14       13       14        0     2181     2302     2314     2314     2564     3097     2314     2565
     2942       14       13       14        0     2227     2237     2230     2230     2792     2798     2230     2790
     2943       14       13       14        0     2184     2228     2225     2225     2584     2781     2225     2583
! ... 17 like lines cut
keyo,cid,8,2               ! auto create asymmetric contact (from Program Controlled setting)
keyo,cid,10,0              ! adjust contact stiffness each NR iteration (from Program Controlled setting)
keyo,cid,12,0              ! standard contact
keyo,cid,18,1              ! small sliding turned on by application
keyo,cid,2,0               ! augmented Lagrange (from Program Controlled setting)
keyo,cid,4,0               ! on Gauss point (from Program Controlled setting)
keyo,cid,9,0               ! use real geometry with stepped effects
keyo,cid,7,0               ! No Prediction
rmod,tid,3,1.       ! FKN
rmod,tid,5,0.       ! ICONT
rmod,tid,6,0.       ! PINB
rmod,tid,10,0.      ! CNOF
rmod,tid,12,0.      ! FKT
rmod,tid,36,47      ! WB DSID
rmod,cid,3,1.       ! FKN
rmod,cid,5,0.       ! ICONT
rmod,cid,6,0.       ! PINB
rmod,cid,10,0.      ! CNOF
rmod,cid,12,0.      ! FKT
rmod,cid,36,47      ! WB DSID
nsel,all
esel,all
/wb,contact,end            !  done creating contacts
/golist
/wb,load,start             !  starting to send loads
/com,*********** Fixed Supports ***********
CMBLOCK,_FIXEDSU,NODE,       46
(8i10)
       626       627       628       629       630       646       647       648
       649       650       651       652       653       654       655       671
       672       673       674       675       983       984       985       986
       987       988       989       990       992      1023      1024      1025
      1026      1027      1028      1029      1030      1031      1032      1033
      1034      1035      1053      1054      1055      1056
cmsel,s,_FIXEDSU
d,all,all
nsel,all
/com,*********** Define Force Using Surface Effect Elements ***********
local,12,0,0.,0.,0.,0.,0.,0.
csys,0
et,15,154
eblock,10,,,10
(15i9)
     2960       15       15       15       12     1146     1187     1188     1188     1667     1846     1188     1668
     2961       15       15       15       12     1184     1188     1187     1187     1841     1846     1187     1840
     2962       15       15       15       12     1143     1146     1188     1188     1657     1668     1188     1659
     2963       15       15       15       12     1145     1187     1146     1146     1666     1667     1146     1664
     2964       15       15       15       12     1144     1186     1145     1145     1663     1665     1145     1661
     2965       15       15       15       12     1145     1186     1187     1187     1665     1845     1187     1666
     2966       15       15       15       12     1144     1185     1186     1186     1662     1844     1186     1663
     2967       15       15       15       12     1103     1185     1144     1144     1453     1662     1144     1452
     2968       15       15       15       12     1101     1103     1144     1144     1444     1452     1144     1446
     2969       15       15       15       12     1102     1185     1103     1103     1449     1453     1103     1447
-1
esel,s,type,,15
keyop,15,2,1                ! Apply load in local coordinate system
keyop,15,7,1                ! Use original area so load is constant in large deformation
esel,all
/com,*********** Define Force Using Surface Effect Elements ***********
local,13,0,0.,0.,0.,0.,0.,0.
csys,0
et,16,154
eblock,10,,,10
(15i9)
     2970       16       16       16       13     2214     2255     2256     2256     2735     2914     2256     2736
     2971       16       16       16       13     2252     2256     2255     2255     2909     2914     2255     2908
     2972       16       16       16       13     2211     2214     2256     2256     2725     2736     2256     2727
     2973       16       16       16       13     2213     2255     2214     2214     2734     2735     2214     2732
     2974       16       16       16       13     2212     2254     2213     2213     2731     2733     2213     2729
     2975       16       16       16       13     2213     2254     2255     2255     2733     2913     2255     2734
     2976       16       16       16       13     2212     2253     2254     2254     2730     2912     2254     2731
     2977       16       16       16       13     2171     2253     2212     2212     2521     2730     2212     2520
     2978       16       16       16       13     2169     2171     2212     2212     2512     2520     2212     2514
     2979       16       16       16       13     2170     2253     2171     2171     2517     2521     2171     2515
-1
esel,s,type,,16
keyop,16,2,1                ! Apply load in local coordinate system
keyop,16,7,1                ! Use original area so load is constant in large deformation
esel,all
/gst,on,on
fini
*get,_numnode,node,0,count
*get,_numelem,elem,0,count
*get, _MAXELEMNUM, elem, 0, NUM, MAX
*get, _MAXNODENUM, node, 0, NUM, MAX
*get, _MAXELEMTYPE, etyp, 0, NUM, MAX
*get, _MAXREALCONST, real, 0, NUM, MAX
/go
/wb,load,end               !  done creating loads
/com,--- Number of total nodes = %_numnode%
/com,--- Number of contact elements = 656
/com,--- Number of spring elements = 0
/com,--- Number of bearing elements = 0
/com,--- Number of solid elements = 1239
/com,--- Number of condensed parts = 0
/com,--- Number of total elements = %_numelem%
*get,_wallbsol,active,,time,wall
/com,****************************************************************************
/com,*************************    SOLUTION       ********************************
/com,****************************************************************************
/solu
antype,0                   ! static analysis
_thickRatio=  0     ! Ratio of thick parts in the model
eqsl,sparse,,,,,1
cntr,print,1               ! print out contact info and also make no initial contact an error
dmpoption,emat,no             ! Don't combine emat file for DANSYS
dmpoption,esav,no             ! Don't combine esav file for DANSYS
nldiag,cont,iter           ! print out contact info each equilibrium iteration
rescontrol,define,last,last,,dele	   ! Program Controlled
/com,****************************************************
/com,******************* SOLVE FOR LS 1 OF 1 ****************
esel,s,type,,15
nsle
sfe,all,1,pres,1,1.83218060012671e-018
sfe,all,2,pres,1,-0.174375348750645
sfe,all,3,pres,1,0.
esel,s,type,,16
nsle
sfe,all,1,pres,1,1.83218060012671e-018
sfe,all,2,pres,1,0.174375348750645
sfe,all,3,pres,1,0.
nsel,all
esel,all
/nopr
/gopr
autots,on                  ! Workbench Program Controlled automatic time stepping
nsub,1,10,1                ! due to presence of general nonlinear
time,1.
outres,erase
outres,all,none
outres,nsol,all,
outres,rsol,all
outres,eangl,all
outres,etmp,all
outres,veng,all
outres,strs,all,
outres,epel,all,
outres,eppl,all,
outres,cont,all,
! *********** WB SOLVE COMMAND ***********
! check interactive state
*get,ANSINTER_,active,,int
*if,ANSINTER_,ne,0,then
/eof
*endif
solve
/com *************** Write FE CONNECTORS ********* 
CEWRITE,file,ce,,INTE
/com,****************************************************
/com,*************** FINISHED SOLVE FOR LS 1 *************
*get,_wallasol,active,,time,wall
/nopr
*get,_numnode,node,0,count
*get,_numelem,elem,0,count
*get, _MAXELEMNUM, elem, 0, NUM, MAX
*get, _MAXNODENUM, node, 0, NUM, MAX,,,INTERNAL
*get, _MAXELEMTYPE, etyp, 0, NUM, MAX
*get, _MAXREALCONST, real, 0, NUM, MAX
/gopr
/post1
xmlo,ENCODING,ISO-8859-1
xmlo,parm
/xml,parm,xml
fini
/gopr
*get,_walldone,active,,time,wall
_preptime=(_wallbsol-_wallstrt)*3600
_solvtime=(_wallasol-_wallbsol)*3600
_posttime=(_walldone-_wallasol)*3600
_totaltim=(_walldone-_wallstrt)*3600
*get,_dlbratio,active,0,solu,dlbr
*get,_combtime,active,0,solu,comb
*get,_ssmode,active,0,solu,ssmm
*get,_ndofs,active,0,solu,ndof
*get,_sol_end_time,active,0,set,time
*if,_sol_end_time,eq,1.000000,then
/fclean				!clean distributed files
*endif
/com,--- Total number of nodes = %_numnode%
/com,--- Total number of elements = %_numelem%
/com,--- Element load balance ratio = %_dlbratio%
/com,--- Time to combine distributed files = %_combtime%
/com,--- Sparse memory mode = %_ssmode%
/com,--- Number of DOF = %_ndofs%
/wb,file,end               ! done with WB generated input
