/batch
/config,noeldb,1     ! force off writing results to database
*get,_wallstrt,active,,time,wall
! ANSYS input file written by Workbench version 2022 R1
! File used for geometry attach: E:\ansys\ansys-code\stduy_4_files\dp0\SYS\DM\SYS.agdb
/title,stduy_4--Static Structural (B5)
! ****** Begin Custom Load Command Snippet ******
/COM, ACT Extensions:
/COM,     LSDYNA, 2021.1
/COM,     5f463412-bd3e-484b-87e7-cbc0a665e474, wbex
/COM,
! ****** End   Custom Load Command Snippet ******
*DIM,_wb_ProjectScratch_dir,string,248
_wb_ProjectScratch_dir(1) = 'E:\ansys\ansys-code\_ProjectScratch\ScrF7CA\'
*DIM,_wb_SolverFiles_dir,string,248
_wb_SolverFiles_dir(1) = 'E:\ansys\ansys-code\stduy_4_files\dp0\SYS-1\MECH\'
*DIM,_wb_userfiles_dir,string,248
_wb_userfiles_dir(1) = 'E:\ansys\ansys-code\stduy_4_files\user_files\'
/com,--- Data in consistent NMM units. See Solving Units in the help system for more information.
/units,MPA
/nopr
/wb,file,start              !  signify a WB generated input file
/prep7
! Turn off shape checking because checks already performed inside WB mesher.
! See help system for more information.
SHPP,OFF,,NOWARN
/nolist
etcon,set             ! allow ANSYS to choose best KEYOP's for 180x elements, resets any applicable keyopt to MAPDL defaults
/com,*********** Nodes for the whole assembly ***********
nblock,3,,11908
(1i9,3e20.9e3)
        1     0.000000000E+00     0.000000000E+00     0.000000000E+00
        2     5.000000000E+01     0.000000000E+00     0.000000000E+00
        3     2.941176471E+00     0.000000000E+00     0.000000000E+00
        4     5.882352941E+00     0.000000000E+00     0.000000000E+00
        5     8.823529412E+00     0.000000000E+00     0.000000000E+00
        6     1.176470588E+01     0.000000000E+00     0.000000000E+00
        7     1.470588235E+01     0.000000000E+00     0.000000000E+00
        8     1.764705882E+01     0.000000000E+00     0.000000000E+00
        9     2.058823529E+01     0.000000000E+00     0.000000000E+00
       10     2.352941176E+01     0.000000000E+00     0.000000000E+00
       11     2.647058824E+01     0.000000000E+00     0.000000000E+00
       12     2.941176471E+01     0.000000000E+00     0.000000000E+00
       13     3.235294118E+01     0.000000000E+00     0.000000000E+00
       14     3.529411765E+01     0.000000000E+00     0.000000000E+00
       15     3.823529412E+01     0.000000000E+00     0.000000000E+00
       16     4.117647059E+01     0.000000000E+00     0.000000000E+00
       17     4.411764706E+01     0.000000000E+00     0.000000000E+00
       18     4.705882353E+01     0.000000000E+00     0.000000000E+00
       19     5.000000000E+01     0.000000000E+00     1.000000000E+01
       20     5.000000000E+01     0.000000000E+00     7.500000000E+00
! ... 10807 like lines cut
/wb,elem,start            !  set before creation of elements
/com,*********** Elements for Body 1 "Solid" ***********
et,1,187
eblock,19,solid,,7050
(19i9)
        1        1        1        1        0        0        0        0       10        0        1      529      543     1561      917     5000     5112     5010     5005
     5108     7593
        1        1        1        1        0        0        0        0       10        0        2      529     1561      814      917     5010     6786     5004     5005
     7593     6777
        1        1        1        1        0        0        0        0       10        0        3      529     1561      543     1550     5010     5112     5000     5009
    10825     5111
        1        1        1        1        0        0        0        0       10        0        4      529      814     1561     1550     5004     6786     5010     5009
     6785    10825
        1        1        1        1        0        0        0        0       10        0        5      543     1561      917      920     5112     7593     5108     5109
     7611     7587
        1        1        1        1        0        0        0        0       10        0        6      814      917     1561      920     6777     7593     6786     6778
     7587     7611
        1        1        1        1        0        0        0        0       10        0        7      555      803     1561      920     5161     6714     5164     5162
     6708     7611
        1        1        1        1        0        0        0        0       10        0        8      555      734     1561      803     5160     6322     5164     5161
     6316     6714
        1        1        1        1        0        0        0        0       10        0        9      734      814     1561     1052     6317     6786     6322     6319
     6780     8346
        1        1        1        1        0        0        0        0       10        0       10      814      920     1561     1052     6778     7611     6786     6780
     7608     8346
! ... 14081 like lines cut
!Material Id = {3A1F4A52-DE95-4ACD-AE91-3242FB9F5184}
/wb,elem,end               !  done creating elements
/com,*********** Send User Defined Coordinate System(s) ***********
csys,0
toffst,273.15,  ! Temperature offset from absolute zero
/com,*********** Set Reference Temperature ***********
tref,22.
/wb,mat,start              !  starting to send materials
/com,*********** Send Materials ***********
Temperature = 'TEMP' ! Temperature
MP,DENS,1,7.85e-09,	! tonne mm^-3
MP,ALPX,1,1.2e-05,	! C^-1
MP,C,1,434000000,	! mm^2 s^-2 C^-1
MP,KXX,1,60.5,	! tonne mm s^-3 C^-1
MP,RSVX,1,0.00017,	! ohm mm
MP,EX,1,200000,	! tonne s^-2 mm^-1
MP,NUXY,1,0.3,
MP,MURX,1,10000,
MP,UVID,1,7417d8c2-ba5c-4141-84a1-2d6b3a1fefe3
MP,UMID,1,59002a79-71c2-428e-906b-55d7dbee100e

/wb,mat,end                !  done sending materials
!************************* Model Summary ********************
!Solid,	Structural Steel,	matid,	1
!************************* End Model Summary ********************
! get the diagonal of the bounding box. Needed later for other things
*get,_xmin,node,,mnloc,x
*get,_ymin,node,,mnloc,y
*get,_zmin,node,,mnloc,z
*get,_xmax,node,,mxloc,x
*get,_ymax,node,,mxloc,y
*get,_zmax,node,,mxloc,z
_ASMDIAG=(_xmax-_xmin)*(_xmax-_xmin)+(_ymax-_ymin)*(_ymax-_ymin)+(_zmax-_zmin)*(_zmax-_zmin)
_ASMDIAG=SQRT(_ASMDIAG)
/wb,contact,start          !  starting to send contact
/wb,contact,end            !  done creating contacts
/golist
/wb,load,start             !  starting to send loads
/com,*********** Fixed Supports ***********
CMBLOCK,_FIXEDSU,NODE,       69
(8i10)
         2        19        20        21        22        43        44        45
        46        47        48        49        50        51        52        53
       608       609       610       611       612       613      1569      1570
      1665      1667      1670      1671      1672      1674      1675      1676
      1681      1682      1683      1798      1799      1803      1805      1807
      1811      1812      1814      1816      1818      1819      1823      1824
      1827      1829      1832      1833      1837      1840      1842      1845
      1849      1850      1853      1854      5488      5489      5490      5491
      5498      5499      5500      5504      5505
cmsel,s,_FIXEDSU
d,all,all
nsel,all
/com,*********** Define Force Using Surface Effect Elements ***********
local,12,0,0.,0.,0.,0.,0.,0.
csys,0
et,2,154
eblock,10,,,26
(15i9)
     8361        2        2        2       12      152      156      515      515     2541     2566      515     2544
     8362        2        2        2       12      100      146      157      157     2185     2507      157     2186
     8363        2        2        2       12      512      515      513      513     4855     4863      513     4853
     8364        2        2        2       12      154      513      155      155     2555     2561      155     2552
     8365        2        2        2       12      147      148      516      516     2512     2522      516     2514
     8366        2        2        2       12      146      147      514      514     2506     2513      514     2508
     8367        2        2        2       12      512      514      516      516     4854     4869      516     4856
     8368        2        2        2       12      154      159      513      513     2553     2580      513     2555
     8369        2        2        2       12      146      517      157      157     2509     2570      157     2507
     8370        2        2        2       12      148      150      516      516     2520     2532      516     2522
     8371        2        2        2       12      152      515      512      512     2544     4855      512     2543
     8372        2        2        2       12      149      156      152      152     2525     2541      152     2524
     8373        2        2        2       12      155      515      156      156     2562     2566      156     2557
     8374        2        2        2       12      155      513      515      515     2561     4863      515     2562
     8375        2        2        2       12      513      517      514      514     4864     4870      514     4862
     8376        2        2        2       12      150      151      516      516     2530     2538      516     2532
     8377        2        2        2       12      146      514      517      517     2508     4870      517     2509
     8378        2        2        2       12      151      512      516      516     2537     4856      516     2538
     8379        2        2        2       12      157      517      158      158     2570     2577      158     2568
     8380        2        2        2       12      512      513      514      514     4853     4862      514     4854
! ... 7 like lines cut
esel,s,type,,2
keyop,2,2,1                ! Apply load in local coordinate system
keyop,2,7,1                ! Use original area so load is constant in large deformation
esel,all
/gst,on,on
fini
*get,_numnode,node,0,count
*get,_numelem,elem,0,count
*get, _MAXELEMNUM, elem, 0, NUM, MAX
*get, _MAXNODENUM, node, 0, NUM, MAX
*get, _MAXELEMTYPE, etyp, 0, NUM, MAX
*get, _MAXREALCONST, real, 0, NUM, MAX
/go
/wb,load,end               !  done creating loads
/com,--- Number of total nodes = %_numnode%
/com,--- Number of contact elements = 26
/com,--- Number of spring elements = 0
/com,--- Number of bearing elements = 0
/com,--- Number of solid elements = 7050
/com,--- Number of condensed parts = 0
/com,--- Number of total elements = %_numelem%
*get,_wallbsol,active,,time,wall
/com,****************************************************************************
/com,*************************    SOLUTION       ********************************
/com,****************************************************************************
/solu
antype,0                   ! static analysis
_thickRatio=  1     ! Ratio of thick parts in the model
eqsl,pcg,1e-8,,,,,,1
cntr,print,1               ! print out contact info and also make no initial contact an error
dmpoption,emat,no             ! Don't combine emat file for DANSYS
dmpoption,esav,no             ! Don't combine esav file for DANSYS
nldiag,cont,iter           ! print out contact info each equilibrium iteration
rescontrol,,none                 ! Do not keep any restart files
/com,****************************************************
/com,******************* SOLVE FOR LS 1 OF 1 ****************
esel,s,type,,2
nsle
sfe,all,1,pres,1,-8.9999999999973
sfe,all,2,pres,1,0.
sfe,all,3,pres,1,0.
nsel,all
esel,all
/nopr
/gopr
nsub,1,1,1
time,1.
outres,erase
outres,all,none
outres,nsol,all,
outres,rsol,all
outres,eangl,all
outres,etmp,all
outres,veng,all
outres,strs,all,
outres,epel,all,
outres,eppl,all,
outres,cont,all,
! *********** WB SOLVE COMMAND ***********
! check interactive state
*get,ANSINTER_,active,,int
*if,ANSINTER_,ne,0,then
/eof
*endif
solve
/com *************** Write FE CONNECTORS ********* 
CEWRITE,file,ce,,INTE
/com,****************************************************
/com,*************** FINISHED SOLVE FOR LS 1 *************
*get,_wallasol,active,,time,wall
/nopr
*get,_numnode,node,0,count
*get,_numelem,elem,0,count
*get, _MAXELEMNUM, elem, 0, NUM, MAX
*get, _MAXNODENUM, node, 0, NUM, MAX,,,INTERNAL
*get, _MAXELEMTYPE, etyp, 0, NUM, MAX
*get, _MAXREALCONST, real, 0, NUM, MAX
/gopr
*get,_PCGITER,active,,solu,cgiter
/post1
xmlo,ENCODING,ISO-8859-1
xmlo,parm
/xml,parm,xml
fini
/gopr
*get,_walldone,active,,time,wall
_preptime=(_wallbsol-_wallstrt)*3600
_solvtime=(_wallasol-_wallbsol)*3600
_posttime=(_walldone-_wallasol)*3600
_totaltim=(_walldone-_wallstrt)*3600
*get,_dlbratio,active,0,solu,dlbr
*get,_combtime,active,0,solu,comb
*get,_ssmode,active,0,solu,ssmm
*get,_ndofs,active,0,solu,ndof
*get,_sol_end_time,active,0,set,time
*if,_sol_end_time,eq,1.000000,then
/fclean				!clean distributed files
*endif
/com,--- Total number of nodes = %_numnode%
/com,--- Total number of elements = %_numelem%
/com,--- Element load balance ratio = %_dlbratio%
/com,--- Time to combine distributed files = %_combtime%
/com,--- Sparse memory mode = %_ssmode%
/com,--- Number of DOF = %_ndofs%
/wb,file,end               ! done with WB generated input
