/batch
/config,noeldb,1     ! force off writing results to database
*get,_wallstrt,active,,time,wall
! ANSYS input file written by Workbench version 2022 R1
! File used for geometry attach: E:\ansys\ansys-code\study_3_files\dp0\SYS\DM\SYS.agdb
/title,study_3--Static Structural (B5)
! ****** Begin Custom Load Command Snippet ******
/COM, ACT Extensions:
/COM,     LSDYNA, 2021.1
/COM,     5f463412-bd3e-484b-87e7-cbc0a665e474, wbex
/COM,
! ****** End   Custom Load Command Snippet ******
*DIM,_wb_ProjectScratch_dir,string,248
_wb_ProjectScratch_dir(1) = 'E:\ansys\ansys-code\_ProjectScratch\Scr89C8\'
*DIM,_wb_SolverFiles_dir,string,248
_wb_SolverFiles_dir(1) = 'E:\ansys\ansys-code\study_3_files\dp0\SYS-1\MECH\'
*DIM,_wb_userfiles_dir,string,248
_wb_userfiles_dir(1) = 'E:\ansys\ansys-code\study_3_files\user_files\'
/com,--- Data in consistent NMM units. See Solving Units in the help system for more information.
/units,MPA
/nopr
/wb,file,start              !  signify a WB generated input file
/prep7
! Turn off shape checking because checks already performed inside WB mesher.
! See help system for more information.
SHPP,OFF,,NOWARN
/nolist
etcon,set             ! allow ANSYS to choose best KEYOP's for 180x elements, resets any applicable keyopt to MAPDL defaults
/com,*********** Nodes for the whole assembly ***********
nblock,3,,3197
(1i9,3e20.9e3)
        1     2.331295804E+01     5.056643695E+00     7.500000000E+00
        2     2.331295804E+01     5.056643695E+00     5.000000000E+00
        3     2.331295804E+01     5.056643695E+00     2.500000000E+00
        4     2.623479830E+01     4.980013651E+00     7.500000000E+00
        5     2.623479830E+01     4.980013651E+00     5.000000000E+00
        6     2.623479830E+01     4.980013651E+00     2.500000000E+00
        7     2.041006343E+01     5.093671913E+00     7.500000000E+00
        8     2.041006343E+01     5.093671913E+00     5.000000000E+00
        9     2.041006343E+01     5.093671913E+00     2.500000000E+00
       10     2.915021440E+01     4.903345896E+00     7.500000000E+00
       11     2.915021440E+01     4.903345896E+00     5.000000000E+00
       12     2.915021440E+01     4.903345896E+00     2.500000000E+00
       13     1.753188338E+01     5.118861872E+00     7.500000000E+00
       14     1.753188338E+01     5.118861872E+00     5.000000000E+00
       15     1.753188338E+01     5.118861872E+00     2.500000000E+00
       16     3.208591315E+01     4.850767984E+00     7.500000000E+00
       17     3.208591315E+01     4.850767984E+00     5.000000000E+00
       18     3.208591315E+01     4.850767984E+00     2.500000000E+00
       19     3.500562399E+01     4.907125438E+00     7.500000000E+00
       20     3.500562399E+01     4.907125438E+00     5.000000000E+00
! ... 2888 like lines cut
/wb,elem,start            !  set before creation of elements
/com,*********** Elements for Body 1 "Solid" ***********
et,1,186
keyo,1,2,1          ! set full integration on SOLID186
eblock,19,solid,,504
(19i9)
        1        1        1        1        0        0        0        0       20        0        1       52      268      259      250      347      275      278      281
     1053     1794     1776     1052     1834     1832     1843     1855     1054     1815     1795     1777
        1        1        1        1        0        0        0        0       20        0        2       52      250      259      268       53      251      260      269
     1052     1776     1794     1053     1058     1779     1798     1059     1049     1775     1793     1814
        1        1        1        1        0        0        0        0       20        0        3       53      251      260      269       54      252      261      270
     1058     1779     1798     1059     1062     1780     1800     1063     1055     1778     1797     1817
        1        1        1        1        0        0        0        0       20        0        4       54      252      261      270      382      448      451      454
     1062     1780     1800     1063     2101     2253     2255     2102     1064     1781     1801     1819
        1        1        1        1        0        0        0        0       20        0        5        1        4      133      136      364      363      320      319
      817      835     1362      820     2043     1966     1962     1963      821      836     1363     1373
        1        1        1        1        0        0        0        0       20        0        6        1      136      133        4        2      137      134        5
      820     1362      835      817      826     1366      840      823      816     1371     1361      832
        1        1        1        1        0        0        0        0       20        0        7        2      137      134        5        3      138      135        6
      826     1366      840      823      830     1368      843      827      822     1375     1365      837
        1        1        1        1        0        0        0        0       20        0        8        3      138      135        6      365      410      409      366
      830     1368      843      827     2047     2167     2050     2044      831     1379     1369      844
        1        1        1        1        0        0        0        0       20        0        9        1       82       85        4      364      337      336      363
      819     1186      834      817     2017     2013     2014     2043      821     1187     1197      836
        1        1        1        1        0        0        0        0       20        0       10        1        4       85       82        2        5       86       83
      817      834     1186      819      823      839     1190      825      816      832     1195     1185
! ... 989 like lines cut
!Material Id = {3A1F4A52-DE95-4ACD-AE91-3242FB9F5184}
/wb,elem,end               !  done creating elements
/com,*********** Send User Defined Coordinate System(s) ***********
csys,0
toffst,273.15,  ! Temperature offset from absolute zero
/com,*********** Set Reference Temperature ***********
tref,22.
/wb,mat,start              !  starting to send materials
/com,*********** Send Materials ***********
Temperature = 'TEMP' ! Temperature
MP,DENS,1,7.85e-09,	! tonne mm^-3
MP,ALPX,1,1.2e-05,	! C^-1
MP,C,1,434000000,	! mm^2 s^-2 C^-1
MP,KXX,1,60.5,	! tonne mm s^-3 C^-1
MP,RSVX,1,0.00017,	! ohm mm
MP,EX,1,200000,	! tonne s^-2 mm^-1
MP,NUXY,1,0.3,
MP,MURX,1,10000,
MP,UVID,1,7417d8c2-ba5c-4141-84a1-2d6b3a1fefe3
MP,UMID,1,59002a79-71c2-428e-906b-55d7dbee100e

/wb,mat,end                !  done sending materials
!************************* Model Summary ********************
!Solid,	Structural Steel,	matid,	1
!************************* End Model Summary ********************
! get the diagonal of the bounding box. Needed later for other things
*get,_xmin,node,,mnloc,x
*get,_ymin,node,,mnloc,y
*get,_zmin,node,,mnloc,z
*get,_xmax,node,,mxloc,x
*get,_ymax,node,,mxloc,y
*get,_zmax,node,,mxloc,z
_ASMDIAG=(_xmax-_xmin)*(_xmax-_xmin)+(_ymax-_ymin)*(_ymax-_ymin)+(_zmax-_zmin)*(_zmax-_zmin)
_ASMDIAG=SQRT(_ASMDIAG)
/wb,contact,start          !  starting to send contact
/wb,contact,end            !  done creating contacts
/golist
/wb,load,start             !  starting to send loads
/com,*********** Fixed Supports ***********
CMBLOCK,_FIXEDSU,NODE,       65
(8i10)
       506       507       508       509       510       596       597       598
       599       600       601       602       603       604       605       606
       607       608       609       610       611       612       613       614
       615      2361      2362      2363      2364      2365      2366      2367
      2368      2370      2527      2528      2529      2530      2531      2532
      2533      2534      2535      2536      2537      2538      2539      2540
      2541      2542      2543      2544      2545      2546      2547      2548
      2549      2550      2551      2552      2553      2554      2555      2557
      2559
cmsel,s,_FIXEDSU
d,all,all
nsel,all
/com,*********** Define Force Using Surface Effect Elements ***********
local,12,0,0.,0.,0.,0.,0.,0.
csys,0
et,2,154
eblock,10,,,16
(15i9)
     1045        2        2        2       12      744      732      474      473     2771     2299     2296     2297
     1046        2        2        2       12      745      735      732      744     2777     2770     2771     2790
     1047        2        2        2       12      746      738      735      745     2783     2776     2777     2792
     1048        2        2        2       12      747      743      738      746     2789     2782     2783     2794
     1049        2        2        2       12      732      733      475      474     2769     2301     2298     2299
     1050        2        2        2       12      735      736      733      732     2775     2773     2769     2770
     1051        2        2        2       12      738      739      736      735     2781     2779     2775     2776
     1052        2        2        2       12      743      742      739      738     2788     2785     2781     2782
     1053        2        2        2       12      733      734      476      475     2772     2303     2300     2301
     1054        2        2        2       12      736      737      734      733     2778     2774     2772     2773
     1055        2        2        2       12      739      740      737      736     2784     2780     2778     2779
     1056        2        2        2       12      742      741      740      739     2787     2786     2784     2785
     1057        2        2        2       12      734      728      477      476     2763     2305     2302     2303
     1058        2        2        2       12      737      729      728      734     2765     2762     2763     2774
     1059        2        2        2       12      740      730      729      737     2767     2764     2765     2780
     1060        2        2        2       12      741      731      730      740     2768     2766     2767     2786
-1
esel,s,type,,2
keyop,2,2,1                ! Apply load in local coordinate system
keyop,2,7,1                ! Use original area so load is constant in large deformation
esel,all
/gst,on,on
fini
*get,_numnode,node,0,count
*get,_numelem,elem,0,count
*get, _MAXELEMNUM, elem, 0, NUM, MAX
*get, _MAXNODENUM, node, 0, NUM, MAX
*get, _MAXELEMTYPE, etyp, 0, NUM, MAX
*get, _MAXREALCONST, real, 0, NUM, MAX
/go
/wb,load,end               !  done creating loads
/com,--- Number of total nodes = %_numnode%
/com,--- Number of contact elements = 16
/com,--- Number of spring elements = 0
/com,--- Number of bearing elements = 0
/com,--- Number of solid elements = 504
/com,--- Number of condensed parts = 0
/com,--- Number of total elements = %_numelem%
*get,_wallbsol,active,,time,wall
/com,****************************************************************************
/com,*************************    SOLUTION       ********************************
/com,****************************************************************************
/solu
antype,0                   ! static analysis
_thickRatio=  1     ! Ratio of thick parts in the model
eqsl,pcg,1e-8,,,,,,1
cntr,print,1               ! print out contact info and also make no initial contact an error
dmpoption,emat,no             ! Don't combine emat file for DANSYS
dmpoption,esav,no             ! Don't combine esav file for DANSYS
nldiag,cont,iter           ! print out contact info each equilibrium iteration
rescontrol,,none                 ! Do not keep any restart files
/com,****************************************************
/com,******************* SOLVE FOR LS 1 OF 1 ****************
esel,s,type,,2
nsle
sfe,all,1,pres,1,-9.00000000000068
sfe,all,2,pres,1,0.
sfe,all,3,pres,1,0.
nsel,all
esel,all
/nopr
/gopr
nsub,1,1,1
time,1.
outres,erase
outres,all,none
outres,nsol,all,
outres,rsol,all
outres,eangl,all
outres,etmp,all
outres,veng,all
outres,strs,all,
outres,epel,all,
outres,eppl,all,
outres,cont,all,
! *********** WB SOLVE COMMAND ***********
! check interactive state
*get,ANSINTER_,active,,int
*if,ANSINTER_,ne,0,then
/eof
*endif
solve
/com *************** Write FE CONNECTORS ********* 
CEWRITE,file,ce,,INTE
/com,****************************************************
/com,*************** FINISHED SOLVE FOR LS 1 *************
*get,_wallasol,active,,time,wall
/nopr
*get,_numnode,node,0,count
*get,_numelem,elem,0,count
*get, _MAXELEMNUM, elem, 0, NUM, MAX
*get, _MAXNODENUM, node, 0, NUM, MAX,,,INTERNAL
*get, _MAXELEMTYPE, etyp, 0, NUM, MAX
*get, _MAXREALCONST, real, 0, NUM, MAX
/gopr
*get,_PCGITER,active,,solu,cgiter
/post1
xmlo,ENCODING,ISO-8859-1
xmlo,parm
/xml,parm,xml
fini
/gopr
*get,_walldone,active,,time,wall
_preptime=(_wallbsol-_wallstrt)*3600
_solvtime=(_wallasol-_wallbsol)*3600
_posttime=(_walldone-_wallasol)*3600
_totaltim=(_walldone-_wallstrt)*3600
*get,_dlbratio,active,0,solu,dlbr
*get,_combtime,active,0,solu,comb
*get,_ssmode,active,0,solu,ssmm
*get,_ndofs,active,0,solu,ndof
*get,_sol_end_time,active,0,set,time
*if,_sol_end_time,eq,1.000000,then
/fclean				!clean distributed files
*endif
/com,--- Total number of nodes = %_numnode%
/com,--- Total number of elements = %_numelem%
/com,--- Element load balance ratio = %_dlbratio%
/com,--- Time to combine distributed files = %_combtime%
/com,--- Sparse memory mode = %_ssmode%
/com,--- Number of DOF = %_ndofs%
/wb,file,end               ! done with WB generated input
